# generated using pymatgen
data_Li7La3Zr2O12
_symmetry_space_group_name_H-M   'P 1'
_cell_length_a   13.20454200
_cell_length_b   21.22125973
_cell_length_c   34.75979982
_cell_angle_alpha   90.00000000
_cell_angle_beta   90.00000000
_cell_angle_gamma   108.12648040
_symmetry_Int_Tables_number   1
_chemical_formula_structural   Li7La3Zr2O12
_chemical_formula_sum   'Li224 La96 Zr64 O384'
_cell_volume   9256.89681647
_cell_formula_units_Z   32
loop_
 _symmetry_equiv_pos_site_id
 _symmetry_equiv_pos_as_xyz
  1  'x, y, z'
loop_
 _atom_site_type_symbol
 _atom_site_label
 _atom_site_symmetry_multiplicity
 _atom_site_fract_x
 _atom_site_fract_y
 _atom_site_fract_z
 _atom_site_occupancy
  Li  Li0  1  0.63772785  0.14802648  0.99467352  1
  Li  Li1  1  0.44760210  0.50526236  0.00368834  1
  Li  Li2  1  0.56610026  0.53292331  0.95217551  1
  Li  Li3  1  0.35212233  0.85004321  0.99562791  1
  Li  Li4  1  0.68848931  0.28704685  0.00141045  1
  Li  Li5  1  0.48393810  0.60617099  0.98243133  1
  Li  Li6  1  0.23684686  0.13113829  0.99563865  1
  Li  Li7  1  0.64319714  0.55881875  0.01760324  1
  Li  Li8  1  0.20556861  0.73617049  0.00733513  1
  Li  Li9  1  0.48649577  0.22897682  0.02040780  1
  Li  Li10  1  0.69170811  0.05876395  0.03147581  1
  Li  Li11  1  0.08169194  0.01661239  0.02783008  1
  Li  Li12  1  0.91760577  0.35096221  0.01313752  1
  Li  Li13  1  0.70227713  0.69990722  0.99468422  1
  Li  Li14  1  0.95102587  0.90110946  0.00238897  1
  Li  Li15  1  0.33416244  0.21314726  0.05772453  1
  Li  Li16  1  0.82845033  0.63320053  0.02872758  1
  Li  Li17  1  0.39503877  0.50974364  0.07180383  1
  Li  Li18  1  0.04922763  0.31577692  0.06860839  1
  Li  Li19  1  0.26016053  0.83045130  0.05986362  1
  Li  Li20  1  0.91975989  0.98970828  0.06829076  1
  Li  Li21  1  0.85027141  0.40893985  0.06137772  1
  Li  Li22  1  0.74087400  0.78447944  0.06574051  1
  Li  Li23  1  0.19526879  0.26416713  0.08374011  1
  Li  Li24  1  0.28309021  0.72328513  0.09297207  1
  Li  Li25  1  0.05626992  0.93882514  0.08553467  1
  Li  Li26  1  0.77340312  0.06112348  0.09260756  1
  Li  Li27  1  0.24345686  0.38055763  0.09818685  1
  Li  Li28  1  0.35949311  0.59982100  0.11533914  1
  Li  Li29  1  0.21112339  0.91910844  0.11766606  1
  Li  Li30  1  0.59384325  0.03970177  0.13240218  1
  Li  Li31  1  0.03058990  0.23023358  0.12901558  1
  Li  Li32  1  0.43992715  0.71839161  0.13173062  1
  Li  Li33  1  0.42237118  0.20789704  0.11911270  1
  Li  Li34  1  0.87560050  0.51259102  0.10358843  1
  Li  Li35  1  0.40198998  0.98039329  0.14525618  1
  Li  Li36  1  0.88412939  0.13290705  0.14224125  1
  Li  Li37  1  0.22596217  0.64971472  0.14870321  1
  Li  Li38  1  0.39007484  0.47839879  0.14115941  1
  Li  Li39  1  0.77702552  0.42469748  0.14628030  1
  Li  Li40  1  0.63442549  0.76605318  0.14816369  1
  Li  Li41  1  0.47795080  0.11918985  0.15441935  1
  Li  Li42  1  0.54481933  0.26560756  0.17583576  1
  Li  Li43  1  0.04139155  0.61907066  0.17779313  1
  Li  Li44  1  0.53791129  0.94224590  0.19281743  1
  Li  Li45  1  0.12279347  0.91493198  0.18379306  1
  Li  Li46  1  0.78211837  0.74858351  0.18879013  1
  Li  Li47  1  0.95034588  0.25346497  0.18943853  1
  Li  Li48  1  0.60935049  0.40975855  0.18874207  1
  Li  Li49  1  0.58554969  0.83699938  0.19895305  1
  Li  Li50  1  0.40246289  0.17581767  0.20732353  1
  Li  Li51  1  0.91725240  0.68553974  0.20097904  1
  Li  Li52  1  0.99354553  0.14348194  0.20390751  1
  Li  Li53  1  0.74123763  0.34322043  0.19892383  1
  Li  Li54  1  0.47802150  0.47104047  0.20982403  1
  Li  Li55  1  0.97343748  0.82021102  0.21449989  1
  Li  Li56  1  0.05171464  0.97439310  0.23815090  1
  Li  Li57  1  0.90380612  0.32583264  0.23636798  1
  Li  Li58  1  0.29982643  0.44725556  0.24869603  1
  Li  Li59  1  0.75512450  0.66814050  0.24148437  1
  Li  Li60  1  0.13732794  0.11361194  0.24889677  1
  Li  Li61  1  0.13126200  0.61561543  0.24424021  1
  Li  Li62  1  0.64602712  0.95770543  0.25708509  1
  Li  Li63  1  0.09678528  0.38247416  0.26288084  1
  Li  Li64  1  0.60525652  0.55101835  0.26172584  1
  Li  Li65  1  0.94245845  0.05296989  0.26191022  1
  Li  Li66  1  0.10206796  0.87885691  0.26512939  1
  Li  Li67  1  0.49803027  0.85232150  0.26291115  1
  Li  Li68  1  0.32858084  0.17370893  0.27364390  1
  Li  Li69  1  0.17844793  0.51944912  0.27474510  1
  Li  Li70  1  0.26921336  0.69578521  0.29332369  1
  Li  Li71  1  0.76883328  0.02702837  0.30339133  1
  Li  Li72  1  0.24733479  0.35546368  0.30197094  1
  Li  Li73  1  0.83107645  0.31944460  0.30495250  1
  Li  Li74  1  0.48850068  0.14843332  0.31168140  1
  Li  Li75  1  0.65211643  0.65396246  0.31289553  1
  Li  Li76  1  0.32630610  0.81692432  0.30780693  1
  Li  Li77  1  0.28151970  0.24771077  0.32455717  1
  Li  Li78  1  0.12492475  0.59338111  0.32733906  1
  Li  Li79  1  0.62614775  0.08543690  0.31526777  1
  Li  Li80  1  0.70273874  0.54996854  0.32647444  1
  Li  Li81  1  0.46469361  0.75416519  0.32010964  1
  Li  Li82  1  0.18125172  0.87727770  0.33157020  1
  Li  Li83  1  0.68834067  0.21992427  0.33155455  1
  Li  Li84  1  0.74973647  0.37196836  0.35615465  1
  Li  Li85  1  0.60472031  0.72822139  0.37025062  1
  Li  Li86  1  0.99693187  0.85113199  0.37202428  1
  Li  Li87  1  0.44194633  0.05934775  0.36520838  1
  Li  Li88  1  0.82845865  0.51638392  0.37086726  1
  Li  Li89  1  0.86440260  0.99607983  0.39613387  1
  Li  Li90  1  0.33051462  0.35426549  0.37102770  1
  Li  Li91  1  0.72776424  0.72756454  0.44506697  1
  Li  Li92  1  0.29169692  0.95158847  0.38368114  1
  Li  Li93  1  0.63162864  0.44035168  0.37710390  1
  Li  Li94  1  0.80852683  0.28275131  0.38598772  1
  Li  Li95  1  0.16937168  0.23245947  0.39082839  1
  Li  Li96  1  0.04958031  0.57744792  0.39620622  1
  Li  Li97  1  0.89883749  0.88655015  0.43276603  1
  Li  Li98  1  0.83200126  0.14053600  0.44742121  1
  Li  Li99  1  0.46250346  0.42567896  0.41715544  1
  Li  Li100  1  0.95283987  0.77237661  0.42830877  1
  Li  Li101  1  0.50030205  0.74473833  0.44373660  1
  Li  Li102  1  0.18877037  0.53086578  0.43339364  1
  Li  Li103  1  0.35365376  0.06686925  0.45131000  1
  Li  Li104  1  0.01350809  0.23418121  0.43119593  1
  Li  Li105  1  0.96710215  0.67065324  0.44673852  1
  Li  Li106  1  0.87428179  0.04220937  0.45524631  1
  Li  Li107  1  0.40240116  0.46242963  0.46786805  1
  Li  Li108  1  0.42805168  0.97097681  0.43162511  1
  Li  Li109  1  0.16025558  0.16014026  0.44659376  1
  Li  Li110  1  0.87772428  0.27523123  0.45354267  1
  Li  Li111  1  0.38211724  0.62224297  0.44529436  1
  Li  Li112  1  0.88662970  0.95166410  0.49485033  1
  Li  Li113  1  0.07738110  0.59471778  0.50369779  1
  Li  Li114  1  0.95892717  0.56798230  0.45233974  1
  Li  Li115  1  0.17287656  0.24999118  0.49561594  1
  Li  Li116  1  0.83758503  0.81266371  0.50167145  1
  Li  Li117  1  0.04105666  0.49388189  0.48240813  1
  Li  Li118  1  0.28893096  0.96892105  0.49592567  1
  Li  Li119  1  0.88179387  0.54114195  0.51759843  1
  Li  Li120  1  0.31933613  0.36378901  0.50735167  1
  Li  Li121  1  0.03860141  0.87250608  0.52064171  1
  Li  Li122  1  0.83334206  0.04133162  0.53157575  1
  Li  Li123  1  0.44355317  0.08342497  0.52789986  1
  Li  Li124  1  0.60899358  0.74928645  0.51371156  1
  Li  Li125  1  0.82309198  0.40049567  0.49470159  1
  Li  Li126  1  0.57401572  0.19888804  0.50238628  1
  Li  Li127  1  0.19039172  0.88655383  0.55771412  1
  Li  Li128  1  0.69631733  0.46686085  0.52872207  1
  Li  Li129  1  0.12997442  0.59026695  0.57180741  1
  Li  Li130  1  0.47560277  0.78423773  0.56853467  1
  Li  Li131  1  0.26484210  0.26953982  0.55988133  1
  Li  Li132  1  0.60566753  0.10999415  0.56838388  1
  Li  Li133  1  0.67278032  0.68908907  0.56264753  1
  Li  Li134  1  0.78356778  0.31521541  0.56562504  1
  Li  Li135  1  0.32966110  0.83578558  0.58373522  1
  Li  Li136  1  0.24206159  0.37665035  0.59304568  1
  Li  Li137  1  0.46902814  0.16117638  0.58552171  1
  Li  Li138  1  0.75164375  0.03885296  0.59266707  1
  Li  Li139  1  0.28153508  0.71942773  0.59816377  1
  Li  Li140  1  0.16556512  0.50015444  0.61535439  1
  Li  Li141  1  0.31391818  0.18089307  0.61768142  1
  Li  Li142  1  0.93116978  0.06034345  0.63241525  1
  Li  Li143  1  0.49438114  0.86975331  0.62899085  1
  Li  Li144  1  0.08509260  0.38160931  0.63174278  1
  Li  Li145  1  0.10257750  0.89208962  0.61912500  1
  Li  Li146  1  0.64956448  0.58672306  0.60363351  1
  Li  Li147  1  0.12311043  0.11976738  0.64528984  1
  Li  Li148  1  0.64089147  0.96706268  0.64226446  1
  Li  Li149  1  0.29908534  0.45030759  0.64870437  1
  Li  Li150  1  0.13557186  0.62138838  0.64128042  1
  Li  Li151  1  0.74814738  0.67547098  0.64624296  1
  Li  Li152  1  0.89056036  0.33396367  0.64816965  1
  Li  Li153  1  0.04777784  0.98149154  0.65438359  1
  Li  Li154  1  0.98002539  0.83427629  0.67581886  1
  Li  Li155  1  0.48245917  0.48095849  0.67851701  1
  Li  Li156  1  0.98704915  0.15775311  0.69284234  1
  Li  Li157  1  0.40224781  0.18507342  0.68378732  1
  Li  Li158  1  0.74291601  0.35142398  0.68879643  1
  Li  Li159  1  0.57515702  0.84732075  0.68919258  1
  Li  Li160  1  0.91542443  0.69018734  0.68873155  1
  Li  Li161  1  0.93952342  0.26319221  0.69907203  1
  Li  Li162  1  0.12269455  0.92419001  0.70731923  1
  Li  Li163  1  0.60773260  0.41446158  0.70099141  1
  Li  Li164  1  0.53142237  0.95662093  0.70393466  1
  Li  Li165  1  0.78369587  0.75675750  0.69898194  1
  Li  Li166  1  0.04695323  0.62896648  0.70982823  1
  Li  Li167  1  0.55157389  0.27994752  0.71439566  1
  Li  Li168  1  0.47345435  0.12557228  0.73818128  1
  Li  Li169  1  0.62111450  0.77417272  0.73636750  1
  Li  Li170  1  0.22491347  0.65279029  0.74877794  1
  Li  Li171  1  0.76979242  0.43182391  0.74149743  1
  Li  Li172  1  0.38763941  0.98636565  0.74890793  1
  Li  Li173  1  0.39318884  0.48454770  0.74540514  1
  Li  Li174  1  0.87902004  0.14227730  0.75715844  1
  Li  Li175  1  0.42796798  0.71751536  0.76299853  1
  Li  Li176  1  0.91974702  0.54901957  0.76180505  1
  Li  Li177  1  0.58247044  0.04700397  0.76191799  1
  Li  Li178  1  0.42284939  0.22095888  0.76506801  1
  Li  Li179  1  0.02701362  0.24766309  0.76287741  1
  Li  Li180  1  0.19638776  0.92629110  0.77364964  1
  Li  Li181  1  0.34616758  0.58164471  0.77551856  1
  Li  Li182  1  0.25574394  0.40413138  0.79334049  1
  Li  Li183  1  0.75566894  0.07276249  0.80328144  1
  Li  Li184  1  0.27757086  0.74489754  0.80196581  1
  Li  Li185  1  0.69393638  0.78053931  0.80495386  1
  Li  Li186  1  0.03630429  0.95148849  0.81202863  1
  Li  Li187  1  0.87186032  0.44589486  0.81305475  1
  Li  Li188  1  0.19920294  0.28267596  0.80776336  1
  Li  Li189  1  0.24344657  0.85262680  0.82453184  1
  Li  Li190  1  0.39996794  0.50677788  0.82742156  1
  Li  Li191  1  0.89843271  0.01459348  0.81516821  1
  Li  Li192  1  0.82221183  0.55020913  0.82653453  1
  Li  Li193  1  0.06172102  0.34521003  0.81983794  1
  Li  Li194  1  0.34377993  0.22271865  0.83155103  1
  Li  Li195  1  0.83664486  0.88005767  0.83156402  1
  Li  Li196  1  0.77537369  0.72800857  0.85616797  1
  Li  Li197  1  0.91974458  0.37138579  0.86993621  1
  Li  Li198  1  0.52728093  0.24848043  0.87190412  1
  Li  Li199  1  0.08308719  0.04067221  0.86523473  1
  Li  Li200  1  0.69689308  0.58406706  0.87119347  1
  Li  Li201  1  0.66056048  0.10394865  0.89597107  1
  Li  Li202  1  0.19428058  0.74570250  0.87102099  1
  Li  Li203  1  0.79727420  0.37283687  0.94502822  1
  Li  Li204  1  0.23333472  0.14856033  0.88350665  1
  Li  Li205  1  0.89422710  0.65955351  0.87716714  1
  Li  Li206  1  0.71652183  0.81723555  0.88596552  1
  Li  Li207  1  0.35560087  0.86750143  0.89085333  1
  Li  Li208  1  0.47544224  0.52259434  0.89620840  1
  Li  Li209  1  0.62652407  0.21399145  0.93202571  1
  Li  Li210  1  0.69288073  0.95944541  0.94739107  1
  Li  Li211  1  0.06228940  0.67412986  0.91760411  1
  Li  Li212  1  0.57128991  0.32802811  0.92776118  1
  Li  Li213  1  0.02353695  0.35459018  0.94279628  1
  Li  Li214  1  0.33624599  0.56912520  0.93339711  1
  Li  Li215  1  0.17075015  0.03286426  0.95124610  1
  Li  Li216  1  0.51164986  0.86574158  0.93116754  1
  Li  Li217  1  0.55767357  0.42962344  0.94687467  1
  Li  Li218  1  0.65203547  0.05836729  0.95487143  1
  Li  Li219  1  0.12241217  0.63734196  0.96782785  1
  Li  Li220  1  0.09712008  0.12902012  0.93151714  1
  Li  Li221  1  0.36615514  0.94026847  0.94658323  1
  Li  Li222  1  0.64765443  0.82478433  0.95346419  1
  Li  Li223  1  0.14248045  0.47763883  0.94539743  1
  La  La224  1  0.90802804  0.07919148  0.99053359  1
  La  La225  1  0.10939341  0.24566182  0.99856369  1
  La  La226  1  0.97220583  0.52307137  0.00548267  1
  La  La227  1  0.41760623  0.35777207  0.03132096  1
  La  La228  1  0.30964749  0.62652004  0.03150806  1
  La  La229  1  0.02120877  0.79711820  0.05102262  1
  La  La230  1  0.51886206  0.79124590  0.04756006  1
  La  La231  1  0.46867098  0.97180411  0.05849037  1
  La  La232  1  0.83698930  0.20598970  0.05830928  1
  La  La233  1  0.27725177  0.06905027  0.09228406  1
  La  La234  1  0.63008014  0.31443652  0.08840540  1
  La  La235  1  0.11341330  0.50789083  0.11263941  1
  La  La236  1  0.61679880  0.49527090  0.10811154  1
  La  La237  1  0.82910402  0.66823231  0.11717446  1
  La  La238  1  0.69852602  0.91568648  0.12473522  1
  La  La239  1  0.12834506  0.77231275  0.15204294  1
  La  La240  1  0.99815850  0.01738346  0.15413644  1
  La  La241  1  0.71495575  0.19457629  0.16483389  1
  La  La242  1  0.21175415  0.19344233  0.16547933  1
  La  La243  1  0.17983767  0.37021641  0.18241758  1
  La  La244  1  0.55407680  0.62045452  0.17960546  1
  La  La245  1  0.97857828  0.47290648  0.21093120  1
  La  La246  1  0.35883252  0.72444107  0.21269046  1
  La  La247  1  0.81669345  0.89620506  0.22790809  1
  La  La248  1  0.31561593  0.89709118  0.22602586  1
  La  La249  1  0.52654035  0.07303214  0.23817592  1
  La  La250  1  0.40500741  0.32054046  0.23970241  1
  La  La251  1  0.83679305  0.17631097  0.26844479  1
  La  La252  1  0.70805690  0.42327254  0.27102438  1
  La  La253  1  0.41928785  0.59772677  0.28303320  1
  La  La254  1  0.91288621  0.59726679  0.28054525  1
  La  La255  1  0.87708468  0.77121824  0.30394179  1
  La  La256  1  0.25115754  0.02488278  0.30122856  1
  La  La257  1  0.69409098  0.87441026  0.33410816  1
  La  La258  1  0.05481081  0.12339587  0.33409585  1
  La  La259  1  0.51755545  0.29498873  0.34417607  1
  La  La260  1  0.02903594  0.30652669  0.34791433  1
  La  La261  1  0.24050779  0.47585114  0.35678375  1
  La  La262  1  0.11044760  0.73733577  0.35797114  1
  La  La263  1  0.53054389  0.57011453  0.38516958  1
  La  La264  1  0.41147276  0.83220826  0.39001150  1
  La  La265  1  0.09438279  0.99731851  0.40736658  1
  La  La266  1  0.63492296  0.00881167  0.39210683  1
  La  La267  1  0.60123804  0.17490950  0.41567702  1
  La  La268  1  0.94309598  0.42091102  0.41787356  1
  La  La269  1  0.38478872  0.28000522  0.44346137  1
  La  La270  1  0.73070808  0.50856826  0.44668136  1
  La  La271  1  0.20433657  0.68740785  0.44529388  1
  La  La272  1  0.61718935  0.02079061  0.49060363  1
  La  La273  1  0.41559607  0.85432867  0.49867551  1
  La  La274  1  0.55240726  0.57675725  0.50538861  1
  La  La275  1  0.10676493  0.74230201  0.53121129  1
  La  La276  1  0.21533785  0.47342547  0.53154603  1
  La  La277  1  0.50374085  0.30289396  0.55110482  1
  La  La278  1  0.00610198  0.30878062  0.54760397  1
  La  La279  1  0.05644868  0.12828031  0.55850956  1
  La  La280  1  0.68795940  0.89395192  0.55830934  1
  La  La281  1  0.24796277  0.03099670  0.59226805  1
  La  La282  1  0.89445945  0.78539083  0.58840624  1
  La  La283  1  0.41186393  0.59225931  0.61264536  1
  La  La284  1  0.90837013  0.60466801  0.60820935  1
  La  La285  1  0.69602252  0.43174751  0.61725464  1
  La  La286  1  0.82651781  0.18432640  0.62480741  1
  La  La287  1  0.39666467  0.32777400  0.65205481  1
  La  La288  1  0.52685418  0.08260874  0.65417888  1
  La  La289  1  0.81041822  0.90549056  0.66486095  1
  La  La290  1  0.31320262  0.90647739  0.66547715  1
  La  La291  1  0.34523846  0.72978182  0.68248517  1
  La  La292  1  0.97098532  0.47955283  0.67967153  1
  La  La293  1  0.54602241  0.62694412  0.71134331  1
  La  La294  1  0.16630564  0.37562389  0.71273300  1
  La  La295  1  0.70833285  0.20383420  0.72795475  1
  La  La296  1  0.20940054  0.20289239  0.72598466  1
  La  La297  1  0.99862716  0.02684365  0.73820402  1
  La  La298  1  0.11995215  0.77942803  0.73966132  1
  La  La299  1  0.68821929  0.92356821  0.76843883  1
  La  La300  1  0.81704999  0.67673519  0.77105369  1
  La  La301  1  0.10545412  0.50220842  0.78310433  1
  La  La302  1  0.61224176  0.50273105  0.78070072  1
  La  La303  1  0.64770642  0.32865913  0.80397918  1
  La  La304  1  0.27388290  0.07503948  0.80124701  1
  La  La305  1  0.83105757  0.22566571  0.83422040  1
  La  La306  1  0.47014992  0.97654726  0.83411906  1
  La  La307  1  0.00749941  0.80495768  0.84420413  1
  La  La308  1  0.49589497  0.79348778  0.84783991  1
  La  La309  1  0.28419670  0.62425959  0.85700827  1
  La  La310  1  0.41418868  0.36274948  0.85794107  1
  La  La311  1  0.99434573  0.52978861  0.88518903  1
  La  La312  1  0.11351303  0.26751021  0.88988226  1
  La  La313  1  0.43056186  0.10276830  0.90735803  1
  La  La314  1  0.89015924  0.09104937  0.89200365  1
  La  La315  1  0.92380498  0.92503115  0.91570639  1
  La  La316  1  0.58197113  0.67926515  0.91794095  1
  La  La317  1  0.14042967  0.82006253  0.94345758  1
  La  La318  1  0.79442503  0.59146320  0.94676302  1
  La  La319  1  0.32029142  0.41264177  0.94525877  1
  Zr  Zr320  1  0.69737189  0.43193728  0.00846325  1
  Zr  Zr321  1  0.22381467  0.94698793  0.01190835  1
  Zr  Zr322  1  0.71981541  0.93374691  0.02405236  1
  Zr  Zr323  1  0.18537773  0.43044718  0.03552389  1
  Zr  Zr324  1  0.55957907  0.14098221  0.07516807  1
  Zr  Zr325  1  0.56674766  0.64210533  0.07489084  1
  Zr  Zr326  1  0.06913000  0.64870923  0.07602994  1
  Zr  Zr327  1  0.05528085  0.13160363  0.07605117  1
  Zr  Zr328  1  0.41558892  0.84742281  0.13656910  1
  Zr  Zr329  1  0.90911859  0.34501792  0.12918250  1
  Zr  Zr330  1  0.40875442  0.34475439  0.13557487  1
  Zr  Zr331  1  0.91115016  0.84435823  0.13610635  1
  Zr  Zr332  1  0.26790531  0.54679536  0.19695211  1
  Zr  Zr333  1  0.26265443  0.04511845  0.19603430  1
  Zr  Zr334  1  0.76395794  0.04504572  0.19804534  1
  Zr  Zr335  1  0.76595732  0.54517081  0.19411626  1
  Zr  Zr336  1  0.11830938  0.24772264  0.25501806  1
  Zr  Zr337  1  0.61771126  0.74761308  0.25693188  1
  Zr  Zr338  1  0.11241563  0.74671614  0.25503370  1
  Zr  Zr339  1  0.61786733  0.24799976  0.25415906  1
  Zr  Zr340  1  0.96786931  0.94812966  0.31610621  1
  Zr  Zr341  1  0.97123028  0.45450602  0.31618746  1
  Zr  Zr342  1  0.47123728  0.44541569  0.31291969  1
  Zr  Zr343  1  0.46548726  0.95155741  0.31401109  1
  Zr  Zr344  1  0.81115056  0.65347319  0.38577441  1
  Zr  Zr345  1  0.30659099  0.14441270  0.37958127  1
  Zr  Zr346  1  0.83357804  0.15389595  0.37047458  1
  Zr  Zr347  1  0.32622686  0.65055734  0.36833428  1
  Zr  Zr348  1  0.66459170  0.34346940  0.43651238  1
  Zr  Zr349  1  0.66186655  0.86918443  0.44574380  1
  Zr  Zr350  1  0.17546043  0.85278265  0.44110443  1
  Zr  Zr351  1  0.16710013  0.35808091  0.44333056  1
  Zr  Zr352  1  0.82699402  0.66766251  0.50862530  1
  Zr  Zr353  1  0.30134012  0.15305991  0.51198242  1
  Zr  Zr354  1  0.80520716  0.16629681  0.52412780  1
  Zr  Zr355  1  0.33956285  0.66954049  0.53543793  1
  Zr  Zr356  1  0.96554644  0.95915373  0.57523289  1
  Zr  Zr357  1  0.95822035  0.45786579  0.57492257  1
  Zr  Zr358  1  0.45580602  0.45128493  0.57616251  1
  Zr  Zr359  1  0.46974648  0.96838514  0.57611844  1
  Zr  Zr360  1  0.10936614  0.25260006  0.63662227  1
  Zr  Zr361  1  0.61638393  0.75520328  0.62923547  1
  Zr  Zr362  1  0.11615496  0.75513629  0.63555341  1
  Zr  Zr363  1  0.61384813  0.25560054  0.63612957  1
  Zr  Zr364  1  0.25725096  0.55319451  0.69711946  1
  Zr  Zr365  1  0.26252966  0.05488374  0.69604352  1
  Zr  Zr366  1  0.76106860  0.05492299  0.69809423  1
  Zr  Zr367  1  0.75885444  0.55479343  0.69416917  1
  Zr  Zr368  1  0.40669675  0.85228704  0.75502774  1
  Zr  Zr369  1  0.90714025  0.35245166  0.75701299  1
  Zr  Zr370  1  0.41251534  0.35327704  0.75503393  1
  Zr  Zr371  1  0.90718026  0.85197089  0.75422583  1
  Zr  Zr372  1  0.55721264  0.15183171  0.81613783  1
  Zr  Zr373  1  0.55391315  0.64550944  0.81638205  1
  Zr  Zr374  1  0.05377323  0.65456855  0.81297176  1
  Zr  Zr375  1  0.05950879  0.14832664  0.81392056  1
  Zr  Zr376  1  0.71364649  0.44670640  0.88579039  1
  Zr  Zr377  1  0.21851956  0.95561508  0.87965133  1
  Zr  Zr378  1  0.69142749  0.94602807  0.87044892  1
  Zr  Zr379  1  0.19854585  0.44944558  0.86833423  1
  Zr  Zr380  1  0.86067040  0.75654058  0.93651562  1
  Zr  Zr381  1  0.86282682  0.23046890  0.94559310  1
  Zr  Zr382  1  0.34945107  0.24735011  0.94099330  1
  Zr  Zr383  1  0.35791673  0.74195221  0.94337550  1
  O  O384  1  0.63258264  0.61430752  0.97057252  1
  O  O385  1  0.32672769  0.43712645  0.01134118  1
  O  O386  1  0.80716881  0.16219858  0.99382683  1
  O  O387  1  0.84440432  0.41252064  0.00538813  1
  O  O388  1  0.37694604  0.94544401  0.00107094  1
  O  O389  1  0.85414161  0.69210568  0.98101591  1
  O  O390  1  0.97599268  0.29524994  0.98578171  1
  O  O391  1  0.79077716  0.53479418  0.00549085  1
  O  O392  1  0.35145318  0.24599520  0.00279119  1
  O  O393  1  0.59990291  0.87434107  0.99285722  1
  O  O394  1  0.18998987  0.83341832  0.00999724  1
  O  O395  1  0.08896435  0.13308249  0.01632364  1
  O  O396  1  0.35930064  0.75006952  0.00618890  1
  O  O397  1  0.21809510  0.03974631  0.00603417  1
  O  O398  1  0.13370041  0.63506148  0.01986140  1
  O  O399  1  0.88188995  0.96346789  0.01512539  1
  O  O400  1  0.59104557  0.33558677  0.02118603  1
  O  O401  1  0.46288669  0.58091277  0.03436737  1
  O  O402  1  0.56684672  0.07828914  0.03254469  1
  O  O403  1  0.56127550  0.46402047  0.00392450  1
  O  O404  1  0.06707197  0.91578912  0.03347570  1
  O  O405  1  0.62975187  0.72096567  0.03977918  1
  O  O406  1  0.09575220  0.45646387  0.99588689  1
  O  O407  1  0.65059885  0.22159691  0.04157699  1
  O  O408  1  0.20026034  0.33262366  0.04455848  1
  O  O409  1  0.41819688  0.15758824  0.06232731  1
  O  O410  1  0.69806732  0.86032204  0.06434823  1
  O  O411  1  0.94050070  0.67668715  0.05965790  1
  O  O412  1  0.89238891  0.09553703  0.05931570  1
  O  O413  1  0.25121995  0.51624835  0.06246413  1
  O  O414  1  0.67215258  0.98406487  0.06705934  1
  O  O415  1  0.03580371  0.22667697  0.07091312  1
  O  O416  1  0.68735427  0.59910058  0.06783603  1
  O  O417  1  0.27791197  0.96136592  0.06909649  1
  O  O418  1  0.99146369  0.54483807  0.07080439  1
  O  O419  1  0.40103495  0.85011194  0.07575503  1
  O  O420  1  0.72142057  0.43182649  0.07093633  1
  O  O421  1  0.15828527  0.75063144  0.07708539  1
  O  O422  1  0.42911815  0.68317422  0.08044002  1
  O  O423  1  0.88161473  0.32627939  0.06968527  1
  O  O424  1  0.07133115  0.03745263  0.08180434  1
  O  O425  1  0.43289008  0.29120612  0.08575826  1
  O  O426  1  0.86355239  0.77972476  0.08913429  1
  O  O427  1  0.20764946  0.62658875  0.09605132  1
  O  O428  1  0.21692372  0.17538816  0.09121205  1
  O  O429  1  0.40608077  0.42110889  0.09523791  1
  O  O430  1  0.71057575  0.13497886  0.09965571  1
  O  O431  1  0.90286798  0.92995664  0.10983573  1
  O  O432  1  0.46678615  0.05814388  0.10831652  1
  O  O433  1  0.06804547  0.85497821  0.11236778  1
  O  O434  1  0.48344905  0.56163205  0.11584875  1
  O  O435  1  0.54175064  0.81040636  0.12649913  1
  O  O436  1  0.10066316  0.39977272  0.08862078  1
  O  O437  1  0.56812020  0.20841790  0.12510260  1
  O  O438  1  0.64428717  0.68569122  0.12593969  1
  O  O439  1  0.51986291  0.94368302  0.13509920  1
  O  O440  1  0.01975133  0.66150729  0.13188365  1
  O  O441  1  0.23625423  0.30860774  0.13120198  1
  O  O442  1  0.89803103  0.24413919  0.13474882  1
  O  O443  1  0.78683501  0.54416134  0.13428420  1
  O  O444  1  0.02793327  0.13766253  0.13611753  1
  O  O445  1  0.92508625  0.44546696  0.13030377  1
  O  O446  1  0.80876916  0.03490471  0.14096321  1
  O  O447  1  0.57588650  0.38263720  0.13665034  1
  O  O448  1  0.30977067  0.74846204  0.14459747  1
  O  O449  1  0.18740977  0.99303842  0.14686972  1
  O  O450  1  0.25133863  0.47946555  0.15091888  1
  O  O451  1  0.28498489  0.87936999  0.15278543  1
  O  O452  1  0.75739055  0.32487381  0.14481409  1
  O  O453  1  0.33694052  0.12534777  0.15724176  1
  O  O454  1  0.76335478  0.83316476  0.16246042  1
  O  O455  1  0.36206917  0.63177583  0.16639733  1
  O  O456  1  0.92799895  0.76190088  0.16759885  1
  O  O457  1  0.12331057  0.55837210  0.17562207  1
  O  O458  1  0.40089175  0.26418953  0.17202822  1
  O  O459  1  0.63286313  0.07752600  0.18090678  1
  O  O460  1  0.60283852  0.51288196  0.17902335  1
  O  O461  1  0.97636992  0.90655983  0.18482363  1
  O  O462  1  0.38395005  0.39629047  0.18317474  1
  O  O463  1  0.76348014  0.64392437  0.18899525  1
  O  O464  1  0.39408516  0.00850815  0.19504456  1
  O  O465  1  0.98740595  0.36020177  0.18331232  1
  O  O466  1  0.68113320  0.94298515  0.19769778  1
  O  O467  1  0.08925873  0.24591254  0.19356848  1
  O  O468  1  0.44425055  0.84501638  0.19853248  1
  O  O469  1  0.85277917  0.14928719  0.19711076  1
  O  O470  1  0.13537885  0.08589687  0.19771223  1
  O  O471  1  0.56074012  0.73599457  0.19922016  1
  O  O472  1  0.77017921  0.44456285  0.19991419  1
  O  O473  1  0.13754511  0.69438062  0.20710709  1
  O  O474  1  0.55021537  0.18383835  0.20678991  1
  O  O475  1  0.90028747  0.01790446  0.21325700  1
  O  O476  1  0.92710833  0.57539671  0.21160399  1
  O  O477  1  0.12240208  0.82725534  0.21785235  1
  O  O478  1  0.40852792  0.53651046  0.21967651  1
  O  O479  1  0.59850063  0.32865387  0.22193056  1
  O  O480  1  0.16825096  0.46331397  0.22815108  1
  O  O481  1  0.76716621  0.26157218  0.22594220  1
  O  O482  1  0.19016348  0.96529101  0.23333095  1
  O  O483  1  0.25200280  0.21670475  0.23964070  1
  O  O484  1  0.77960930  0.77013682  0.24204605  1
  O  O485  1  0.27032215  0.61044468  0.24342272  1
  O  O486  1  0.33821708  0.09833983  0.24516521  1
  O  O487  1  0.22486562  0.34819496  0.24723319  1
  O  O488  1  0.71729275  0.05829055  0.25455311  1
  O  O489  1  0.94239605  0.70724235  0.25385905  1
  O  O490  1  0.60621460  0.64491078  0.25578745  1
  O  O491  1  0.49701121  0.94961933  0.25439512  1
  O  O492  1  0.73916475  0.54320087  0.25459614  1
  O  O493  1  0.63737903  0.84904366  0.25750189  1
  O  O494  1  0.51768197  0.43533416  0.25613088  1
  O  O495  1  0.28049727  0.78169763  0.25972683  1
  O  O496  1  0.01929813  0.15082913  0.25984704  1
  O  O497  1  0.89368355  0.40094443  0.26561321  1
  O  O498  1  0.96608627  0.88669549  0.26728593  1
  O  O499  1  0.98846519  0.28286674  0.26320590  1
  O  O500  1  0.45383008  0.71834376  0.27108000  1
  O  O501  1  0.04137154  0.53222714  0.27635044  1
  O  O502  1  0.46816951  0.23714991  0.28015074  1
  O  O503  1  0.06804343  0.03258598  0.28423557  1
  O  O504  1  0.63364094  0.16625810  0.28449538  1
  O  O505  1  0.82211493  0.95433638  0.29282680  1
  O  O506  1  0.10802449  0.67006614  0.29517933  1
  O  O507  1  0.33506966  0.47279831  0.29878007  1
  O  O508  1  0.30330134  0.91785330  0.29910865  1
  O  O509  1  0.68284630  0.31023284  0.30090601  1
  O  O510  1  0.08645337  0.80208970  0.30371428  1
  O  O511  1  0.46165884  0.05054738  0.30877634  1
  O  O512  1  0.10034644  0.41490935  0.31258257  1
  O  O513  1  0.66970748  0.75790829  0.31597761  1
  O  O514  1  0.38057095  0.34301595  0.31324566  1
  O  O515  1  0.79761196  0.64650636  0.32455988  1
  O  O516  1  0.14877142  0.25801269  0.31403541  1
  O  O517  1  0.55769513  0.54883386  0.31534488  1
  O  O518  1  0.84232974  0.49517301  0.31831230  1
  O  O519  1  0.25537466  0.14184062  0.32211604  1
  O  O520  1  0.47900350  0.85490628  0.32090347  1
  O  O521  1  0.86505554  0.10870724  0.32059684  1
  O  O522  1  0.26264975  0.58399003  0.32370986  1
  O  O523  1  0.60300545  0.41386432  0.32778839  1
  O  O524  1  0.63164022  0.98427315  0.32636194  1
  O  O525  1  0.83800209  0.23589329  0.33333815  1
  O  O526  1  0.10738900  0.93888981  0.34213889  1
  O  O527  1  0.32352062  0.74097173  0.34259950  1
  O  O528  1  0.87460333  0.86370379  0.34437333  1
  O  O529  1  0.47494247  0.65684287  0.34781766  1
  O  O530  1  0.89507976  0.37155335  0.35193803  1
  O  O531  1  0.90838312  0.59744279  0.40581825  1
  O  O532  1  0.47199335  0.17041522  0.36569179  1
  O  O533  1  0.97739552  0.01547223  0.36028214  1
  O  O534  1  0.04572970  0.50199131  0.36575407  1
  O  O535  1  0.93286095  0.74237701  0.37195087  1
  O  O536  1  0.42466245  0.45567991  0.36976530  1
  O  O537  1  0.66476327  0.11953256  0.36439082  1
  O  O538  1  0.29336851  0.04566092  0.37434027  1
  O  O539  1  0.19612455  0.36723373  0.38125114  1
  O  O540  1  0.43983181  0.95515449  0.37385603  1
  O  O541  1  0.32727668  0.25097122  0.37800676  1
  O  O542  1  0.21909351  0.84292648  0.38056254  1
  O  O543  1  0.99982428  0.19862641  0.37808111  1
  O  O544  1  0.69974757  0.54801731  0.38191945  1
  O  O545  1  0.57253319  0.80348094  0.40160642  1
  O  O546  1  0.66613871  0.28497690  0.38302836  1
  O  O547  1  0.67230774  0.67319279  0.39725608  1
  O  O548  1  0.14780299  0.12173156  0.39544745  1
  O  O549  1  0.72488260  0.92801855  0.39715529  1
  O  O550  1  0.16385350  0.64780606  0.37961899  1
  O  O551  1  0.75909670  0.43000090  0.40059484  1
  O  O552  1  0.32245599  0.56530876  0.40390486  1
  O  O553  1  0.56632031  0.25753189  0.46093352  1
  O  O554  1  0.81805709  0.07456747  0.40804877  1
  O  O555  1  0.03490275  0.87003865  0.42518693  1
  O  O556  1  0.00836953  0.32423285  0.42123824  1
  O  O557  1  0.37329484  0.69975614  0.42035128  1
  O  O558  1  0.79652763  0.20471169  0.41836442  1
  O  O559  1  0.13728700  0.44811645  0.45627539  1
  O  O560  1  0.77517548  0.82516973  0.45501726  1
  O  O561  1  0.33004359  0.15713909  0.44408884  1
  O  O562  1  0.08493367  0.74751590  0.43833394  1
  O  O563  1  0.52649712  0.06191876  0.43597534  1
  O  O564  1  0.84048152  0.68922298  0.44837784  1
  O  O565  1  0.27009355  0.95126815  0.43997821  1
  O  O566  1  0.53329092  0.91988945  0.44409706  1
  O  O567  1  0.09895577  0.57600223  0.45017516  1
  O  O568  1  0.16526652  0.25734263  0.44201928  1
  O  O569  1  0.53018118  0.36010810  0.40740333  1
  O  O570  1  0.94329975  0.97910379  0.44242902  1
  O  O571  1  0.30631149  0.81103456  0.44783929  1
  O  O572  1  0.33578305  0.38028812  0.44795399  1
  O  O573  1  0.53437154  0.51788935  0.44704536  1
  O  O574  1  0.81202577  0.33964759  0.45044411  1
  O  O575  1  0.80151112  0.08473875  0.48922037  1
  O  O576  1  0.89264599  0.48598199  0.47046422  1
  O  O577  1  0.19806336  0.66296494  0.51137040  1
  O  O578  1  0.71788155  0.93781169  0.49399911  1
  O  O579  1  0.67992569  0.68678799  0.50590233  1
  O  O580  1  0.14829569  0.15468903  0.50110296  1
  O  O581  1  0.67110660  0.40794902  0.48098862  1
  O  O582  1  0.54924698  0.80468161  0.48643369  1
  O  O583  1  0.73389999  0.56487768  0.50547827  1
  O  O584  1  0.17320496  0.85413337  0.50287183  1
  O  O585  1  0.92520861  0.22573044  0.49296105  1
  O  O586  1  0.33520509  0.26668297  0.51003020  1
  O  O587  1  0.43617667  0.96692705  0.51639419  1
  O  O588  1  0.16565654  0.34988763  0.50617414  1
  O  O589  1  0.30700022  0.06026703  0.50617869  1
  O  O590  1  0.39101402  0.46452662  0.51990887  1
  O  O591  1  0.64315804  0.13651298  0.51521953  1
  O  O592  1  0.93343845  0.76393917  0.52133050  1
  O  O593  1  0.06208665  0.51903836  0.53438757  1
  O  O594  1  0.95821294  0.02187580  0.53260046  1
  O  O595  1  0.96337674  0.63573080  0.50372645  1
  O  O596  1  0.45807976  0.18426555  0.53350461  1
  O  O597  1  0.89507203  0.37898420  0.53982926  1
  O  O598  1  0.42874784  0.64334199  0.49568286  1
  O  O599  1  0.87582456  0.87869779  0.54136432  1
  O  O600  1  0.32478139  0.76737958  0.54460298  1
  O  O601  1  0.10709861  0.94265503  0.56241091  1
  O  O602  1  0.82687603  0.23966068  0.56444351  1
  O  O603  1  0.58444638  0.42330704  0.55980720  1
  O  O604  1  0.63258476  0.00462877  0.55942520  1
  O  O605  1  0.27389008  0.58381558  0.56248115  1
  O  O606  1  0.85280213  0.11597079  0.56715542  1
  O  O607  1  0.48940795  0.87334162  0.57097282  1
  O  O608  1  0.83773436  0.50090365  0.56784803  1
  O  O609  1  0.24721431  0.13874772  0.56914441  1
  O  O610  1  0.53357469  0.55504526  0.57073262  1
  O  O611  1  0.12399991  0.24994240  0.57582647  1
  O  O612  1  0.80401804  0.66758845  0.57113411  1
  O  O613  1  0.36677496  0.34923990  0.57729082  1
  O  O614  1  0.09580824  0.41677891  0.58047206  1
  O  O615  1  0.64533643  0.77397432  0.56988475  1
  O  O616  1  0.45376972  0.06252951  0.58185787  1
  O  O617  1  0.09178437  0.80870110  0.58577022  1
  O  O618  1  0.66140183  0.32022119  0.58917447  1
  O  O619  1  0.31722696  0.47348124  0.59606820  1
  O  O620  1  0.30806157  0.92450166  0.59118337  1
  O  O621  1  0.11883614  0.67880959  0.59530167  1
  O  O622  1  0.81452128  0.96498320  0.59962598  1
  O  O623  1  0.62224436  0.16998981  0.60988972  1
  O  O624  1  0.05839294  0.04202118  0.60836134  1
  O  O625  1  0.45696746  0.24493880  0.61243117  1
  O  O626  1  0.04175487  0.53831257  0.61590112  1
  O  O627  1  0.98323605  0.28962296  0.62654498  1
  O  O628  1  0.42487665  0.70019862  0.58836548  1
  O  O629  1  0.95689984  0.89161750  0.62507522  1
  O  O630  1  0.88068777  0.41439584  0.62602360  1
  O  O631  1  0.00509655  0.15634408  0.63516347  1
  O  O632  1  0.50460034  0.43871648  0.63211593  1
  O  O633  1  0.28879296  0.79133188  0.63122318  1
  O  O634  1  0.62703384  0.85602007  0.63476943  1
  O  O635  1  0.73809182  0.55531417  0.63436079  1
  O  O636  1  0.49702969  0.96228287  0.63618917  1
  O  O637  1  0.60120569  0.65497344  0.62923767  1
  O  O638  1  0.71630623  0.06499001  0.64103517  1
  O  O639  1  0.94905379  0.71740453  0.63673569  1
  O  O640  1  0.21521782  0.35154849  0.64465750  1
  O  O641  1  0.33779798  0.10696351  0.64691041  1
  O  O642  1  0.27415950  0.62069538  0.65103811  1
  O  O643  1  0.23991177  0.22054361  0.65283525  1
  O  O644  1  0.76797247  0.77538581  0.64507783  1
  O  O645  1  0.18826965  0.97466099  0.65724786  1
  O  O646  1  0.76165081  0.26686146  0.66249131  1
  O  O647  1  0.16315961  0.46829500  0.66646088  1
  O  O648  1  0.59696629  0.33814421  0.66758342  1
  O  O649  1  0.40189178  0.54198601  0.67568535  1
  O  O650  1  0.12409229  0.83575821  0.67203665  1
  O  O651  1  0.89220145  0.02246074  0.68092911  1
  O  O652  1  0.92199829  0.58713362  0.67914069  1
  O  O653  1  0.54867664  0.19346028  0.68488747  1
  O  O654  1  0.14112143  0.70372025  0.68321772  1
  O  O655  1  0.76132348  0.45603685  0.68910619  1
  O  O656  1  0.13098700  0.09133668  0.69500719  1
  O  O657  1  0.53759133  0.73929592  0.68325413  1
  O  O658  1  0.84382185  0.15696125  0.69779332  1
  O  O659  1  0.43587667  0.85405209  0.69361069  1
  O  O660  1  0.08071917  0.25499012  0.69859449  1
  O  O661  1  0.67216269  0.95060379  0.69716298  1
  O  O662  1  0.38971178  0.01405053  0.69772908  1
  O  O663  1  0.96410536  0.36409265  0.69927490  1
  O  O664  1  0.75456297  0.65537941  0.69988237  1
  O  O665  1  0.38690578  0.40559345  0.70725486  1
  O  O666  1  0.97487720  0.91611336  0.70685679  1
  O  O667  1  0.62471010  0.08205260  0.71328382  1
  O  O668  1  0.59776881  0.52476176  0.71181351  1
  O  O669  1  0.40264562  0.27279886  0.71784748  1
  O  O670  1  0.11650209  0.56355513  0.71969442  1
  O  O671  1  0.92642990  0.77124410  0.72200912  1
  O  O672  1  0.35665577  0.63674284  0.72836130  1
  O  O673  1  0.75782736  0.83843805  0.72605495  1
  O  O674  1  0.33493902  0.13474540  0.73331934  1
  O  O675  1  0.27299405  0.88329472  0.73963699  1
  O  O676  1  0.74526177  0.32985459  0.74204455  1
  O  O677  1  0.25425502  0.48941203  0.74351603  1
  O  O678  1  0.18692094  0.00168025  0.74518249  1
  O  O679  1  0.30002969  0.75184508  0.74728173  1
  O  O680  1  0.80773515  0.04157363  0.75460349  1
  O  O681  1  0.58244225  0.39278662  0.75390930  1
  O  O682  1  0.91864637  0.45511822  0.75586943  1
  O  O683  1  0.02798254  0.15027456  0.75433486  1
  O  O684  1  0.78575417  0.55688399  0.75469227  1
  O  O685  1  0.88768393  0.25104198  0.75755347  1
  O  O686  1  0.00737469  0.66461326  0.75618475  1
  O  O687  1  0.24441971  0.31819110  0.75975500  1
  O  O688  1  0.50568451  0.94914875  0.75986629  1
  O  O689  1  0.63130453  0.69902547  0.76574746  1
  O  O690  1  0.55898995  0.21336277  0.76738043  1
  O  O691  1  0.53634382  0.81696958  0.76340772  1
  O  O692  1  0.07102018  0.38165248  0.77111794  1
  O  O693  1  0.48325250  0.56781239  0.77660545  1
  O  O694  1  0.05686078  0.86282267  0.78020884  1
  O  O695  1  0.45690584  0.06742617  0.78423713  1
  O  O696  1  0.89136124  0.93366120  0.78456010  1
  O  O697  1  0.70279221  0.14562801  0.79284718  1
  O  O698  1  0.41663764  0.43006654  0.79516697  1
  O  O699  1  0.18992066  0.62709036  0.79888999  1
  O  O700  1  0.22173788  0.18210477  0.79908871  1
  O  O701  1  0.84217966  0.78972638  0.80097185  1
  O  O702  1  0.43839127  0.29791056  0.80373159  1
  O  O703  1  0.06331995  0.04937426  0.80878438  1
  O  O704  1  0.42442664  0.68486735  0.81267688  1
  O  O705  1  0.85443436  0.34214835  0.81596958  1
  O  O706  1  0.14435501  0.75694291  0.81333511  1
  O  O707  1  0.72709244  0.45371327  0.82459084  1
  O  O708  1  0.37606844  0.84200338  0.81403769  1
  O  O709  1  0.96716402  0.55122652  0.81542532  1
  O  O710  1  0.68266865  0.60486137  0.81849432  1
  O  O711  1  0.26968710  0.95808788  0.82213978  1
  O  O712  1  0.04639750  0.24505952  0.82077610  1
  O  O713  1  0.65989814  0.99118377  0.82058882  1
  O  O714  1  0.26226534  0.51619127  0.82380128  1
  O  O715  1  0.92201485  0.68611662  0.82782205  1
  O  O716  1  0.89333442  0.11574822  0.82628247  1
  O  O717  1  0.68698822  0.86402705  0.83334765  1
  O  O718  1  0.41767132  0.16116916  0.84221662  1
  O  O719  1  0.20186115  0.35906100  0.84259321  1
  O  O720  1  0.65022628  0.23619560  0.84454648  1
  O  O721  1  0.04996103  0.44326683  0.84785158  1
  O  O722  1  0.63003363  0.72853535  0.85203333  1
  O  O723  1  0.61673810  0.50297543  0.90591051  1
  O  O724  1  0.05309239  0.92957145  0.86581986  1
  O  O725  1  0.54742901  0.08441129  0.86024465  1
  O  O726  1  0.47942818  0.59818560  0.86595147  1
  O  O727  1  0.59183496  0.35786115  0.87184610  1
  O  O728  1  0.10007227  0.64429214  0.86990985  1
  O  O729  1  0.86020394  0.98040394  0.86434264  1
  O  O730  1  0.23170828  0.05435624  0.87425140  1
  O  O731  1  0.32881970  0.73294981  0.88128749  1
  O  O732  1  0.08520579  0.14478107  0.87377654  1
  O  O733  1  0.19778476  0.84908738  0.87803094  1
  O  O734  1  0.30569663  0.25700807  0.88045954  1
  O  O735  1  0.52512406  0.90130377  0.87808604  1
  O  O736  1  0.82535543  0.55201868  0.88201729  1
  O  O737  1  0.95190159  0.29584829  0.90086874  1
  O  O738  1  0.85904645  0.81504218  0.88305638  1
  O  O739  1  0.85241086  0.42671905  0.89710985  1
  O  O740  1  0.37731988  0.97833653  0.89548992  1
  O  O741  1  0.79983982  0.17159003  0.89704512  1
  O  O742  1  0.36100063  0.45235737  0.87964787  1
  O  O743  1  0.76628187  0.67006258  0.90065742  1
  O  O744  1  0.20240749  0.53464644  0.90401591  1
  O  O745  1  0.95892851  0.84247034  0.96098815  1
  O  O746  1  0.70696945  0.02541075  0.90796475  1
  O  O747  1  0.49003550  0.23022234  0.92506255  1
  O  O748  1  0.51664896  0.77572363  0.92127628  1
  O  O749  1  0.15124572  0.40019114  0.92030552  1
  O  O750  1  0.72850403  0.89526636  0.91834592  1
  O  O751  1  0.38769429  0.65188404  0.95627654  1
  O  O752  1  0.75012173  0.27487355  0.95464262  1
  O  O753  1  0.19493883  0.94288940  0.94404570  1
  O  O754  1  0.43976321  0.35275296  0.93804119  1
  O  O755  1  0.99895695  0.03800546  0.93586845  1
  O  O756  1  0.68401376  0.41081393  0.94823141  1
  O  O757  1  0.25518529  0.14887248  0.93980200  1
  O  O758  1  0.99173228  0.17988761  0.94393841  1
  O  O759  1  0.42603422  0.52402269  0.95021974  1
  O  O760  1  0.35987635  0.84268436  0.94206422  1
  O  O761  1  0.99505806  0.73985051  0.90746503  1
  O  O762  1  0.58198347  0.12118829  0.94223509  1
  O  O763  1  0.21856894  0.28895723  0.94772753  1
  O  O764  1  0.18918503  0.71959545  0.94806463  1
  O  O765  1  0.99040751  0.58199070  0.94717940  1
  O  O766  1  0.71329727  0.76047382  0.95044610  1
  O  O767  1  0.72369629  0.01537298  0.98912189  1
