# generated using pymatgen
data_Li66La28Zr18O111
_symmetry_space_group_name_H-M   'P 1'
_cell_length_a   11.27162600
_cell_length_b   18.66058700
_cell_length_c   49.69070106
_cell_angle_alpha   90.00000000
_cell_angle_beta   90.00000000
_cell_angle_gamma   89.99896220
_symmetry_Int_Tables_number   1
_chemical_formula_structural   Li66La28Zr18O111
_chemical_formula_sum   'Li264 La112 Zr72 O444'
_cell_volume   10451.70143795
_cell_formula_units_Z   4
loop_
 _symmetry_equiv_pos_site_id
 _symmetry_equiv_pos_as_xyz
  1  'x, y, z'
loop_
 _atom_site_type_symbol
 _atom_site_label
 _atom_site_symmetry_multiplicity
 _atom_site_fract_x
 _atom_site_fract_y
 _atom_site_fract_z
 _atom_site_occupancy
  Li  Li0  1  0.92838411  0.69910033  0.09350073  1
  Li  Li1  1  0.63201572  0.20409655  0.08582989  1
  Li  Li2  1  0.06165214  0.17585807  0.97867425  1
  Li  Li3  1  0.81887067  0.12061990  0.07606282  1
  Li  Li4  1  0.21521031  0.93357214  0.02342059  1
  Li  Li5  1  0.51220818  0.44804223  0.07231227  1
  Li  Li6  1  0.39422491  0.84923140  0.05560949  1
  Li  Li7  1  0.45305989  0.54013486  0.02912843  1
  Li  Li8  1  0.66734062  0.50198672  0.04546265  1
  Li  Li9  1  0.18377478  0.80193645  0.01709432  1
  Li  Li10  1  0.42277119  0.57822919  0.08210130  1
  Li  Li11  1  0.39029258  0.82848085  0.00037891  1
  Li  Li12  1  0.70233361  0.16180723  0.03348540  1
  Li  Li13  1  0.18263734  0.25600456  0.04559329  1
  Li  Li14  1  0.93754001  0.55024799  0.00702565  1
  Li  Li15  1  0.94030396  0.82356891  0.06707994  1
  Li  Li16  1  0.90460495  0.53247648  0.05445549  1
  Li  Li17  1  0.99645637  0.88489872  0.02510267  1
  Li  Li18  1  0.43286805  0.70722123  0.09462763  1
  Li  Li19  1  0.12586054  0.20130767  0.08858044  1
  Li  Li20  1  0.47176366  0.20840582  0.99343638  1
  Li  Li21  1  0.31850628  0.28546002  0.08351765  1
  Li  Li22  1  0.86274316  0.40993481  0.01166373  1
  Li  Li23  1  0.02778353  0.95368549  0.06966177  1
  Li  Li24  1  0.02827618  0.57713290  0.09207642  1
  Li  Li25  1  0.53207018  0.32467165  0.09475804  1
  Li  Li26  1  0.53413324  0.82673383  0.09155338  1
  Li  Li27  1  0.02448084  0.07637341  0.09130016  1
  Li  Li28  1  0.61722602  0.19270625  0.20274641  1
  Li  Li29  1  0.31740237  0.69661103  0.19034437  1
  Li  Li30  1  0.75155372  0.78122879  0.10202073  1
  Li  Li31  1  0.50018578  0.61582641  0.18577117  1
  Li  Li32  1  0.04961781  0.45664765  0.11706618  1
  Li  Li33  1  0.19789248  0.93943110  0.17443008  1
  Li  Li34  1  0.09485399  0.36541339  0.15990968  1
  Li  Li35  1  0.15365468  0.02895212  0.13031091  1
  Li  Li36  1  0.35712151  0.00078952  0.14853911  1
  Li  Li37  1  0.88396548  0.39598154  0.14306624  1
  Li  Li38  1  0.12384006  0.06968784  0.17857749  1
  Li  Li39  1  0.11690405  0.32432943  0.11386242  1
  Li  Li40  1  0.38283100  0.64749571  0.13963543  1
  Li  Li41  1  0.87560711  0.74988732  0.14301746  1
  Li  Li42  1  0.63663625  0.07704084  0.09928651  1
  Li  Li43  1  0.61347679  0.32115083  0.18500015  1
  Li  Li44  1  0.58988950  0.03407661  0.15648805  1
  Li  Li45  1  0.65996953  0.36470433  0.13483481  1
  Li  Li46  1  0.11377145  0.19656485  0.20433419  1
  Li  Li47  1  0.81199638  0.69594109  0.19099961  1
  Li  Li48  1  0.23719857  0.61380222  0.10433082  1
  Li  Li49  1  0.00385570  0.78268836  0.18511417  1
  Li  Li50  1  0.53562464  0.95864467  0.11690577  1
  Li  Li51  1  0.70536847  0.44919064  0.17520103  1
  Li  Li52  1  0.71540527  0.07099991  0.19718135  1
  Li  Li53  1  0.21460141  0.82112831  0.19715965  1
  Li  Li54  1  0.21568952  0.32114321  0.19850913  1
  Li  Li55  1  0.71344316  0.57342710  0.19733238  1
  Li  Li56  1  0.29981622  0.69439778  0.30832929  1
  Li  Li57  1  0.00010760  0.20201139  0.29766862  1
  Li  Li58  1  0.42434796  0.28166666  0.20964598  1
  Li  Li59  1  0.19215826  0.11425933  0.29197278  1
  Li  Li60  1  0.72542614  0.94684870  0.22100217  1
  Li  Li61  1  0.88860028  0.44875525  0.27948836  1
  Li  Li62  1  0.77309409  0.86283924  0.26161705  1
  Li  Li63  1  0.83998169  0.53281627  0.23844804  1
  Li  Li64  1  0.06659504  0.50341546  0.24795590  1
  Li  Li65  1  0.55114242  0.89293975  0.25173066  1
  Li  Li66  1  0.79671093  0.57419042  0.28916024  1
  Li  Li67  1  0.81530796  0.82325340  0.20909621  1
  Li  Li68  1  0.05218026  0.14496867  0.25282622  1
  Li  Li69  1  0.56264159  0.25110988  0.24828502  1
  Li  Li70  1  0.30550903  0.57272051  0.21549649  1
  Li  Li71  1  0.29604045  0.82381976  0.28911232  1
  Li  Li72  1  0.27756078  0.53274773  0.26396380  1
  Li  Li73  1  0.33711100  0.86485744  0.23809696  1
  Li  Li74  1  0.79865386  0.70217559  0.30817183  1
  Li  Li75  1  0.50082755  0.19438026  0.29657741  1
  Li  Li76  1  0.93101313  0.11395978  0.20813308  1
  Li  Li77  1  0.68699928  0.28006331  0.29108875  1
  Li  Li78  1  0.22964496  0.44370458  0.22044461  1
  Li  Li79  1  0.38566619  0.95051526  0.27940326  1
  Li  Li80  1  0.39906860  0.57361657  0.30345100  1
  Li  Li81  1  0.89569650  0.32381214  0.30208369  1
  Li  Li82  1  0.89959109  0.82385820  0.30246706  1
  Li  Li83  1  0.40216071  0.07147417  0.30282058  1
  Li  Li84  1  0.99880599  0.20307777  0.41431105  1
  Li  Li85  1  0.68567560  0.70408318  0.40165811  1
  Li  Li86  1  0.10894663  0.78177691  0.31392422  1
  Li  Li87  1  0.87495985  0.61620635  0.39608866  1
  Li  Li88  1  0.40818258  0.44996525  0.32626793  1
  Li  Li89  1  0.57906803  0.94595801  0.38389838  1
  Li  Li90  1  0.45647342  0.36693555  0.36708794  1
  Li  Li91  1  0.52732990  0.03082377  0.34353186  1
  Li  Li92  1  0.74238057  0.00217857  0.35493542  1
  Li  Li93  1  0.22836005  0.39682337  0.35826537  1
  Li  Li94  1  0.49215845  0.07022815  0.39518729  1
  Li  Li95  1  0.50314314  0.32201079  0.31705192  1
  Li  Li96  1  0.74279756  0.64679804  0.35382816  1
  Li  Li97  1  0.24379269  0.74839353  0.35365102  1
  Li  Li98  1  0.00373105  0.07318807  0.31671503  1
  Li  Li99  1  0.99923951  0.32549400  0.38648571  1
  Li  Li100  1  0.95970711  0.02903475  0.36663699  1
  Li  Li101  1  0.01937260  0.36388452  0.33992087  1
  Li  Li102  1  0.49258103  0.19340501  0.41384710  1
  Li  Li103  1  0.16806126  0.69839797  0.40611707  1
  Li  Li104  1  0.60693575  0.61589448  0.31430237  1
  Li  Li105  1  0.33904315  0.77699429  0.39857103  1
  Li  Li106  1  0.91389743  0.94539576  0.32581086  1
  Li  Li107  1  0.06049824  0.45375932  0.38354184  1
  Li  Li108  1  0.08797618  0.07876954  0.40715137  1
  Li  Li109  1  0.56902656  0.82038546  0.40749555  1
  Li  Li110  1  0.58811225  0.31063489  0.40620144  1
  Li  Li111  1  0.08208515  0.57469068  0.40939584  1
  Li  Li112  1  0.80120389  0.28519045  0.42055019  1
  Li  Li113  1  0.38149361  0.20005344  0.50048831  1
  Li  Li114  1  0.09013070  0.96005201  0.42590318  1
  Li  Li115  1  0.25461065  0.39629601  0.49460872  1
  Li  Li116  1  0.99475266  0.89073885  0.46695735  1
  Li  Li117  1  0.21074371  0.53249144  0.45135802  1
  Li  Li118  1  0.57107856  0.50865331  0.44610792  1
  Li  Li119  1  0.80342271  0.89937663  0.48251538  1
  Li  Li120  1  0.12814648  0.57070314  0.49319842  1
  Li  Li121  1  0.16029669  0.83263333  0.43347300  1
  Li  Li122  1  0.42530978  0.14198390  0.45787242  1
  Li  Li123  1  0.94382269  0.25726008  0.45704029  1
  Li  Li124  1  0.68325035  0.58390230  0.42004672  1
  Li  Li125  1  0.64765495  0.82328836  0.48972376  1
  Li  Li126  1  0.67234109  0.55154195  0.47857907  1
  Li  Li127  1  0.69370220  0.86140268  0.43967315  1
  Li  Li128  1  0.29345739  0.11425444  0.41886717  1
  Li  Li129  1  0.88147951  0.20350091  0.50107550  1
  Li  Li130  1  0.56249259  0.41398335  0.42197698  1
  Li  Li131  1  0.76600858  0.03671846  0.51248396  1
  Li  Li132  1  0.54647157  0.95138619  0.59381062  1
  Li  Li133  1  0.84524737  0.44524878  0.58620729  1
  Li  Li134  1  0.41388723  0.47353711  0.47877095  1
  Li  Li135  1  0.65673358  0.52904611  0.57665599  1
  Li  Li136  1  0.26112044  0.71665743  0.52337673  1
  Li  Li137  1  0.96234688  0.20238126  0.57235988  1
  Li  Li138  1  0.08256000  0.80013082  0.55540445  1
  Li  Li139  1  0.02192958  0.11108244  0.52907324  1
  Li  Li140  1  0.80639795  0.14805589  0.54543339  1
  Li  Li141  1  0.29159440  0.84858729  0.51724923  1
  Li  Li142  1  0.05306888  0.07287868  0.58191599  1
  Li  Li143  1  0.08553939  0.82228280  0.50023728  1
  Li  Li144  1  0.77296386  0.48843942  0.53398961  1
  Li  Li145  1  0.29423035  0.39335973  0.54621582  1
  Li  Li146  1  0.53856234  0.10049525  0.50710106  1
  Li  Li147  1  0.53498423  0.82666378  0.56701398  1
  Li  Li148  1  0.56935497  0.11709370  0.55472488  1
  Li  Li149  1  0.47887752  0.76439354  0.52511250  1
  Li  Li150  1  0.04239215  0.94334262  0.59462190  1
  Li  Li151  1  0.34980345  0.44878532  0.58869055  1
  Li  Li152  1  0.00155744  0.44040905  0.49369196  1
  Li  Li153  1  0.15474462  0.36454290  0.58358907  1
  Li  Li154  1  0.61342764  0.24041315  0.51184251  1
  Li  Li155  1  0.44925957  0.69602775  0.56973510  1
  Li  Li156  1  0.44570885  0.07349623  0.59247298  1
  Li  Li157  1  0.94225940  0.32516430  0.59502324  1
  Li  Li158  1  0.94166960  0.82334312  0.59147164  1
  Li  Li159  1  0.45122182  0.57332098  0.59136525  1
  Li  Li160  1  0.85782835  0.45767619  0.70280481  1
  Li  Li161  1  0.15951031  0.95210465  0.69072708  1
  Li  Li162  1  0.72308086  0.86885036  0.60187665  1
  Li  Li163  1  0.97703943  0.03356206  0.68574354  1
  Li  Li164  1  0.42704543  0.19447484  0.61727680  1
  Li  Li165  1  0.27785628  0.70992492  0.67425387  1
  Li  Li166  1  0.38078215  0.28466977  0.66001840  1
  Li  Li167  1  0.32363331  0.62073548  0.63060071  1
  Li  Li168  1  0.11918691  0.64893046  0.64894259  1
  Li  Li169  1  0.59231237  0.25490812  0.64365821  1
  Li  Li170  1  0.35493587  0.58017588  0.67937373  1
  Li  Li171  1  0.35668309  0.32622848  0.61360110  1
  Li  Li172  1  0.09201446  0.00267967  0.63985343  1
  Li  Li173  1  0.60148085  0.89985961  0.64361934  1
  Li  Li174  1  0.83858291  0.57303127  0.59921949  1
  Li  Li175  1  0.85976540  0.32857067  0.68470179  1
  Li  Li176  1  0.88635634  0.61602021  0.65655528  1
  Li  Li177  1  0.81561534  0.28449041  0.63484128  1
  Li  Li178  1  0.36060975  0.45363264  0.70396498  1
  Li  Li179  1  0.66199567  0.95414490  0.69087993  1
  Li  Li180  1  0.23730752  0.03648566  0.60435725  1
  Li  Li181  1  0.47176397  0.86760029  0.68500432  1
  Li  Li182  1  0.94042852  0.69131898  0.61697545  1
  Li  Li183  1  0.76999577  0.20042521  0.67559833  1
  Li  Li184  1  0.75967295  0.57893104  0.69707949  1
  Li  Li185  1  0.26064830  0.82834449  0.69704104  1
  Li  Li186  1  0.25867465  0.32875858  0.69855457  1
  Li  Li187  1  0.76183864  0.07661007  0.69726744  1
  Li  Li188  1  0.17523049  0.95623675  0.80809601  1
  Li  Li189  1  0.47301181  0.44812508  0.79728481  1
  Li  Li190  1  0.04899866  0.36812587  0.70939202  1
  Li  Li191  1  0.28120732  0.53636015  0.79145350  1
  Li  Li192  1  0.74962512  0.70337466  0.72107163  1
  Li  Li193  1  0.58771539  0.20168165  0.77940091  1
  Li  Li194  1  0.70104368  0.78703909  0.76163007  1
  Li  Li195  1  0.63624025  0.11732037  0.73842362  1
  Li  Li196  1  0.41137562  0.14681825  0.74852362  1
  Li  Li197  1  0.92248272  0.75732708  0.75163121  1
  Li  Li198  1  0.67888921  0.07549141  0.78913156  1
  Li  Li199  1  0.66042913  0.82715214  0.70973989  1
  Li  Li200  1  0.42085536  0.50488855  0.75242750  1
  Li  Li201  1  0.91397281  0.39910581  0.74922328  1
  Li  Li202  1  0.16912815  0.07712118  0.71516491  1
  Li  Li203  1  0.18027170  0.82654030  0.78936273  1
  Li  Li204  1  0.19852513  0.11732048  0.76348480  1
  Li  Li205  1  0.13702471  0.78580451  0.73793087  1
  Li  Li206  1  0.67553164  0.94732270  0.80793693  1
  Li  Li207  1  0.97311615  0.45639169  0.79681971  1
  Li  Li208  1  0.54598376  0.53664157  0.70869007  1
  Li  Li209  1  0.78618523  0.36949235  0.79140489  1
  Li  Li210  1  0.24588777  0.20631886  0.72056994  1
  Li  Li211  1  0.08964794  0.70015208  0.77941244  1
  Li  Li212  1  0.07459877  0.07680597  0.80323613  1
  Li  Li213  1  0.57765377  0.32606090  0.80193099  1
  Li  Li214  1  0.57417122  0.82555559  0.80230717  1
  Li  Li215  1  0.07213924  0.57860561  0.80289566  1
  Li  Li216  1  0.47742204  0.44600008  0.91428872  1
  Li  Li217  1  0.78857359  0.94578563  0.90098354  1
  Li  Li218  1  0.36693280  0.86865709  0.81403852  1
  Li  Li219  1  0.59988814  0.03366560  0.89614240  1
  Li  Li220  1  0.06667558  0.20019400  0.82610403  1
  Li  Li221  1  0.89493737  0.70650096  0.88481943  1
  Li  Li222  1  0.01876509  0.28279237  0.86700849  1
  Li  Li223  1  0.94633926  0.61999691  0.84318448  1
  Li  Li224  1  0.73580710  0.64796884  0.85674907  1
  Li  Li225  1  0.24657774  0.25317336  0.85812089  1
  Li  Li226  1  0.97647520  0.57989158  0.89345908  1
  Li  Li227  1  0.97241469  0.32821449  0.81744048  1
  Li  Li228  1  0.72989573  0.00420317  0.85339771  1
  Li  Li229  1  0.22986558  0.90200451  0.85331997  1
  Li  Li230  1  0.47057157  0.57694612  0.81656527  1
  Li  Li231  1  0.47526151  0.32384851  0.88610510  1
  Li  Li232  1  0.51504773  0.62093455  0.86623573  1
  Li  Li233  1  0.45387445  0.28694662  0.83940048  1
  Li  Li234  1  0.98118228  0.45772033  0.91381484  1
  Li  Li235  1  0.30808574  0.95150240  0.90608812  1
  Li  Li236  1  0.86719409  0.03343847  0.81425889  1
  Li  Li237  1  0.13892546  0.87285305  0.89856851  1
  Li  Li238  1  0.56192757  0.70345608  0.82649639  1
  Li  Li239  1  0.41464474  0.19585113  0.88306523  1
  Li  Li240  1  0.38615341  0.56953695  0.90706625  1
  Li  Li241  1  0.90618783  0.82979445  0.90752762  1
  Li  Li242  1  0.88710768  0.33933995  0.90614410  1
  Li  Li243  1  0.39320788  0.07518686  0.90918627  1
  Li  Li244  1  0.67534894  0.36413762  0.92063233  1
  Li  Li245  1  0.09322520  0.44954493  0.00040977  1
  Li  Li246  1  0.39042536  0.68552488  0.92517359  1
  Li  Li247  1  0.22021893  0.25462289  0.99408408  1
  Li  Li248  1  0.48060053  0.75887819  0.96722365  1
  Li  Li249  1  0.26416777  0.11715357  0.95133783  1
  Li  Li250  1  0.90264146  0.14168450  0.94576586  1
  Li  Li251  1  0.67286387  0.75011262  0.98234232  1
  Li  Li252  1  0.34811315  0.07851399  0.99294528  1
  Li  Li253  1  0.31612830  0.81475416  0.93384585  1
  Li  Li254  1  0.05149550  0.50813214  0.95799974  1
  Li  Li255  1  0.53181077  0.39279925  0.95712614  1
  Li  Li256  1  0.79297315  0.06535015  0.91974588  1
  Li  Li257  1  0.82801313  0.82768090  0.98967406  1
  Li  Li258  1  0.80279748  0.09768534  0.97848148  1
  Li  Li259  1  0.78216532  0.78723277  0.93941069  1
  Li  Li260  1  0.17972628  0.53608598  0.91865243  1
  Li  Li261  1  0.59380425  0.44659413  0.00119728  1
  Li  Li262  1  0.91273947  0.23597900  0.92197471  1
  Li  Li263  1  0.70860205  0.61278929  0.01251322  1
  La  La264  1  0.69431561  0.63528727  0.07660949  1
  La  La265  1  0.50831033  0.01385976  0.04905661  1
  La  La266  1  0.37011700  0.37900942  0.02731796  1
  La  La267  1  0.68556576  0.32955494  0.04295516  1
  La  La268  1  0.17763221  0.08655091  0.04194348  1
  La  La269  1  0.18711471  0.56973742  0.04166841  1
  La  La270  1  0.68576753  0.81132676  0.04009175  1
  La  La271  1  0.18769163  0.75795494  0.07555623  1
  La  La272  1  0.02409700  0.39125514  0.05859330  1
  La  La273  1  0.87356840  0.02038336  0.02680193  1
  La  La274  1  0.37806349  0.13415770  0.18469788  1
  La  La275  1  0.86776878  0.26055327  0.10545310  1
  La  La276  1  0.21306242  0.51462236  0.15938672  1
  La  La277  1  0.03055961  0.88197555  0.12919052  1
  La  La278  1  0.36898638  0.82278346  0.14356650  1
  La  La279  1  0.87391142  0.57555939  0.14500948  1
  La  La280  1  0.86851266  0.07210999  0.14309389  1
  La  La281  1  0.37360175  0.32267957  0.14605354  1
  La  La282  1  0.87764726  0.26267851  0.18399989  1
  La  La283  1  0.36776417  0.13145747  0.10679430  1
  La  La284  1  0.70710578  0.88458729  0.15638166  1
  La  La285  1  0.53810585  0.51372330  0.13282568  1
  La  La286  1  0.05878867  0.63461826  0.28927477  1
  La  La287  1  0.55121340  0.76287532  0.21044212  1
  La  La288  1  0.89472248  0.01097003  0.26305908  1
  La  La289  1  0.72181432  0.38425215  0.23734298  1
  La  La290  1  0.05797668  0.32377921  0.25048248  1
  La  La291  1  0.55723461  0.07219076  0.25002872  1
  La  La292  1  0.55678720  0.57373657  0.25017355  1
  La  La293  1  0.05470392  0.82348863  0.24955388  1
  La  La294  1  0.55871228  0.76151815  0.28956827  1
  La  La295  1  0.05047935  0.63595702  0.21086754  1
  La  La296  1  0.39477412  0.38361526  0.26407074  1
  La  La297  1  0.21685683  0.01223635  0.23609293  1
  La  La298  1  0.75223033  0.13399502  0.39438453  1
  La  La299  1  0.23990504  0.26334506  0.31674793  1
  La  La300  1  0.57253584  0.51692779  0.36816082  1
  La  La301  1  0.40571012  0.88362446  0.34239951  1
  La  La302  1  0.74250257  0.82287727  0.35499823  1
  La  La303  1  0.23834794  0.57549049  0.35589950  1
  La  La304  1  0.24729910  0.07262397  0.35559409  1
  La  La305  1  0.74466101  0.32384913  0.35553618  1
  La  La306  1  0.25260250  0.26198143  0.39475348  1
  La  La307  1  0.74015355  0.13338990  0.31594103  1
  La  La308  1  0.08184905  0.88056880  0.36907666  1
  La  La309  1  0.90150413  0.51293931  0.34230427  1
  La  La310  1  0.91533146  0.76750610  0.42490802  1
  La  La311  1  0.24236858  0.01540823  0.47207235  1
  La  La312  1  0.08216139  0.39973696  0.44138951  1
  La  La313  1  0.43436041  0.31482799  0.45875649  1
  La  La314  1  0.93365205  0.07379375  0.45799872  1
  La  La315  1  0.91620338  0.58875372  0.46061906  1
  La  La316  1  0.40448685  0.81229093  0.45985657  1
  La  La317  1  0.40705655  0.63285416  0.42652458  1
  La  La318  1  0.72722293  0.38716422  0.47528706  1
  La  La319  1  0.59435609  0.01090874  0.44964944  1
  La  La320  1  0.78106721  0.01473699  0.57658512  1
  La  La321  1  0.96760798  0.63602415  0.54910219  1
  La  La322  1  0.10513571  0.27098886  0.52739314  1
  La  La323  1  0.78986876  0.32059701  0.54308536  1
  La  La324  1  0.29790277  0.56344014  0.54211328  1
  La  La325  1  0.28801813  0.08010709  0.54181820  1
  La  La326  1  0.78984843  0.83875242  0.54014421  1
  La  La327  1  0.28756243  0.89207326  0.57568405  1
  La  La328  1  0.45144307  0.25860523  0.55863220  1
  La  La329  1  0.60241241  0.62900827  0.52699963  1
  La  La330  1  0.09744147  0.51591672  0.68474005  1
  La  La331  1  0.60764288  0.38916019  0.60560434  1
  La  La332  1  0.26245448  0.13542801  0.65931141  1
  La  La333  1  0.44498838  0.76820599  0.62917340  1
  La  La334  1  0.10609211  0.82720658  0.64355392  1
  La  La335  1  0.60143564  0.07461160  0.64506646  1
  La  La336  1  0.60722338  0.57791347  0.64319436  1
  La  La337  1  0.10168758  0.32734444  0.64614867  1
  La  La338  1  0.59747422  0.38786153  0.68410968  1
  La  La339  1  0.10786425  0.51869271  0.60690953  1
  La  La340  1  0.76813275  0.76538856  0.65639344  1
  La  La341  1  0.93702499  0.13619464  0.63285085  1
  La  La342  1  0.41615081  0.01544765  0.78916612  1
  La  La343  1  0.92342520  0.88731389  0.71034495  1
  La  La344  1  0.57958045  0.63909302  0.76304085  1
  La  La345  1  0.75335472  0.26622854  0.73729238  1
  La  La346  1  0.41671770  0.32648595  0.75032873  1
  La  La347  1  0.91734947  0.57811337  0.75002985  1
  La  La348  1  0.91812280  0.07635853  0.75007561  1
  La  La349  1  0.41956385  0.82670371  0.74948652  1
  La  La350  1  0.91616868  0.88837899  0.78951544  1
  La  La351  1  0.42435229  0.01438660  0.71086798  1
  La  La352  1  0.07976939  0.26641301  0.76397091  1
  La  La353  1  0.25762130  0.63832576  0.73605886  1
  La  La354  1  0.72099560  0.51523058  0.89440547  1
  La  La355  1  0.23404680  0.38700992  0.81656166  1
  La  La356  1  0.90254642  0.13306848  0.86802437  1
  La  La357  1  0.06849858  0.76633459  0.84245209  1
  La  La358  1  0.73190426  0.82729367  0.85482415  1
  La  La359  1  0.23633112  0.07456351  0.85571745  1
  La  La360  1  0.22694533  0.57728079  0.85548299  1
  La  La361  1  0.72967792  0.32613159  0.85548810  1
  La  La362  1  0.22200610  0.38800601  0.89472944  1
  La  La363  1  0.73403376  0.51720629  0.81600519  1
  La  La364  1  0.39258139  0.76982761  0.86898622  1
  La  La365  1  0.57340175  0.13758487  0.84201124  1
  La  La366  1  0.55991289  0.88205004  0.92496870  1
  La  La367  1  0.23276890  0.63475768  0.97202138  1
  La  La368  1  0.39330084  0.25004227  0.94109820  1
  La  La369  1  0.04037917  0.33516282  0.95861027  1
  La  La370  1  0.54071148  0.57567075  0.95818200  1
  La  La371  1  0.55929317  0.06089282  0.96044596  1
  La  La372  1  0.07090132  0.83786033  0.95983097  1
  La  La373  1  0.06796765  0.01693222  0.92623857  1
  La  La374  1  0.74757264  0.26244080  0.97520177  1
  La  La375  1  0.88134525  0.63862744  0.94968460  1
  Zr  Zr376  1  0.77847061  0.45072466  0.09402359  1
  Zr  Zr377  1  0.44169617  0.69410040  0.03459993  1
  Zr  Zr378  1  0.44009861  0.20026510  0.04346216  1
  Zr  Zr379  1  0.77692516  0.94894898  0.08879276  1
  Zr  Zr380  1  0.93785778  0.69584634  0.03039500  1
  Zr  Zr381  1  0.93982186  0.21126803  0.03539044  1
  Zr  Zr382  1  0.28279310  0.44848093  0.09342299  1
  Zr  Zr383  1  0.27924613  0.94384322  0.09024612  1
  Zr  Zr384  1  0.46470999  0.94739643  0.19715474  1
  Zr  Zr385  1  0.12296877  0.19764876  0.14586384  1
  Zr  Zr386  1  0.12148938  0.69862609  0.14414779  1
  Zr  Zr387  1  0.46679434  0.44776696  0.19818790  1
  Zr  Zr388  1  0.62196612  0.19740587  0.14459012  1
  Zr  Zr389  1  0.62183269  0.70001627  0.14361939  1
  Zr  Zr390  1  0.96230128  0.94774111  0.19619507  1
  Zr  Zr391  1  0.96501885  0.44912078  0.19794017  1
  Zr  Zr392  1  0.14824206  0.44944161  0.30291356  1
  Zr  Zr393  1  0.80437749  0.69909968  0.24973392  1
  Zr  Zr394  1  0.80792839  0.19718158  0.24971395  1
  Zr  Zr395  1  0.14988090  0.94825250  0.30281351  1
  Zr  Zr396  1  0.30569080  0.69916063  0.25000900  1
  Zr  Zr397  1  0.30791334  0.19758904  0.25084303  1
  Zr  Zr398  1  0.64822615  0.44866707  0.30309134  1
  Zr  Zr399  1  0.65055549  0.94747842  0.30247417  1
  Zr  Zr400  1  0.83426995  0.94713783  0.40769198  1
  Zr  Zr401  1  0.49609016  0.19509618  0.35509012  1
  Zr  Zr402  1  0.48979970  0.69942660  0.35723035  1
  Zr  Zr403  1  0.82239295  0.45010774  0.40943508  1
  Zr  Zr404  1  0.99478314  0.19846180  0.35540400  1
  Zr  Zr405  1  0.99047049  0.69947418  0.35590303  1
  Zr  Zr406  1  0.34245223  0.94891086  0.40925497  1
  Zr  Zr407  1  0.33305672  0.45090429  0.40895543  1
  Zr  Zr408  1  0.15449499  0.70315594  0.46613661  1
  Zr  Zr409  1  0.18512062  0.20092018  0.46313820  1
  Zr  Zr410  1  0.65955314  0.70022161  0.46212473  1
  Zr  Zr411  1  0.68564742  0.19509358  0.46118971  1
  Zr  Zr412  1  0.69640548  0.19920334  0.59415625  1
  Zr  Zr413  1  0.03353815  0.95630533  0.53459667  1
  Zr  Zr414  1  0.03542569  0.44963314  0.54361403  1
  Zr  Zr415  1  0.69887321  0.70107682  0.58885447  1
  Zr  Zr416  1  0.53747256  0.95427329  0.53052286  1
  Zr  Zr417  1  0.53580321  0.43869705  0.53563537  1
  Zr  Zr418  1  0.19256599  0.20205475  0.59350278  1
  Zr  Zr419  1  0.19681783  0.70588662  0.59034643  1
  Zr  Zr420  1  0.01011192  0.70284668  0.69720292  1
  Zr  Zr421  1  0.35245479  0.45265110  0.64592135  1
  Zr  Zr422  1  0.35340219  0.95142918  0.64419166  1
  Zr  Zr423  1  0.00842859  0.20206932  0.69815672  1
  Zr  Zr424  1  0.85349538  0.45244114  0.64469976  1
  Zr  Zr425  1  0.85332560  0.95002412  0.64354857  1
  Zr  Zr426  1  0.51306220  0.70262845  0.69617585  1
  Zr  Zr427  1  0.51005952  0.20087354  0.69799717  1
  Zr  Zr428  1  0.32607561  0.20068700  0.80271139  1
  Zr  Zr429  1  0.67025683  0.95097834  0.74968972  1
  Zr  Zr430  1  0.66684493  0.45280733  0.74983967  1
  Zr  Zr431  1  0.32491743  0.70199821  0.80277372  1
  Zr  Zr432  1  0.16884407  0.95091667  0.74998376  1
  Zr  Zr433  1  0.16635887  0.45253125  0.75071766  1
  Zr  Zr434  1  0.82691273  0.20148486  0.80297834  1
  Zr  Zr435  1  0.82336061  0.70260346  0.80252266  1
  Zr  Zr436  1  0.63987108  0.70277973  0.90765179  1
  Zr  Zr437  1  0.97827161  0.45483242  0.85512248  1
  Zr  Zr438  1  0.98478662  0.95061768  0.85720458  1
  Zr  Zr439  1  0.65291601  0.19951605  0.90928859  1
  Zr  Zr440  1  0.47906792  0.45115622  0.85520261  1
  Zr  Zr441  1  0.48425634  0.95083239  0.85581196  1
  Zr  Zr442  1  0.13192229  0.70029995  0.90929501  1
  Zr  Zr443  1  0.14218892  0.19900661  0.90885293  1
  Zr  Zr444  1  0.32067347  0.94659887  0.96598021  1
  Zr  Zr445  1  0.28985575  0.44903921  0.96310353  1
  Zr  Zr446  1  0.81581008  0.94964231  0.96184447  1
  Zr  Zr447  1  0.78907244  0.45487059  0.96118068  1
  O  O448  1  0.61746817  0.90070346  0.07159519  1
  O  O449  1  0.48015074  0.29766809  0.06052313  1
  O  O450  1  0.38133329  0.10094508  0.02856525  1
  O  O451  1  0.34101906  0.61967700  0.01433572  1
  O  O452  1  0.55421674  0.74221697  0.06594629  1
  O  O453  1  0.69670269  0.34905970  0.09219605  1
  O  O454  1  0.86616310  0.55046994  0.09508566  1
  O  O455  1  0.35777933  0.26037688  0.01297962  1
  O  O456  1  0.53075801  0.13499032  0.07071113  1
  O  O457  1  0.72969216  0.03856613  0.06376701  1
  O  O458  1  0.93650218  0.38993840  0.10250091  1
  O  O459  1  0.62527727  0.51179481  0.08597113  1
  O  O460  1  0.31832767  0.77873446  0.03528662  1
  O  O461  1  0.57204903  0.60813250  0.03715649  1
  O  O462  1  0.55789955  0.43017271  0.03602016  1
  O  O463  1  0.33501078  0.94434699  0.05006949  1
  O  O464  1  0.35889940  0.49631154  0.05875451  1
  O  O465  1  0.78093322  0.21757643  0.06172513  1
  O  O466  1  0.10393079  0.19804610  0.01604483  1
  O  O467  1  0.01960908  0.64748564  0.99819817  1
  O  O468  1  0.82333840  0.74432099  0.06583722  1
  O  O469  1  0.81162798  0.44050112  0.05262542  1
  O  O470  1  0.07324901  0.98272126  0.03300162  1
  O  O471  1  0.33080909  0.65673337  0.06893968  1
  O  O472  1  0.53615562  0.76248183  0.00803287  1
  O  O473  1  0.59666301  0.22227663  0.01632080  1
  O  O474  1  0.28099130  0.19351369  0.06603957  1
  O  O475  1  0.03205503  0.49117343  0.03142419  1
  O  O476  1  0.86606203  0.90812825  0.05440970  1
  O  O477  1  0.83086222  0.60645918  0.03722066  1
  O  O478  1  0.04374866  0.78836355  0.03659118  1
  O  O479  1  0.83661695  0.14836010  0.01022914  1
  O  O480  1  0.02827625  0.26423068  0.06889036  1
  O  O481  1  0.23436204  0.36238785  0.06530856  1
  O  O482  1  0.43245555  0.00996425  0.09559260  1
  O  O483  1  0.12205015  0.88266533  0.08517606  1
  O  O484  1  0.05477234  0.65381228  0.06350798  1
  O  O485  1  0.80573618  0.74436235  0.00724652  1
  O  O486  1  0.89240300  0.31207047  0.02166573  1
  O  O487  1  0.97500907  0.11200442  0.05623551  1
  O  O488  1  0.12390859  0.49592407  0.08349352  1
  O  O489  1  0.36448026  0.84220850  0.09378413  1
  O  O490  1  0.18993966  0.04524468  0.08875629  1
  O  O491  1  0.93448954  0.99614639  0.10325910  1
  O  O492  1  0.30629601  0.40089077  0.18472292  1
  O  O493  1  0.16078164  0.79962654  0.16118398  1
  O  O494  1  0.08271385  0.59749218  0.12761774  1
  O  O495  1  0.00772557  0.15391473  0.11640099  1
  O  O496  1  0.24025986  0.24225895  0.17450439  1
  O  O497  1  0.37834184  0.84753817  0.19415405  1
  O  O498  1  0.54834327  0.04896112  0.20019547  1
  O  O499  1  0.02846254  0.75634360  0.11447626  1
  O  O500  1  0.20433216  0.63689875  0.17515141  1
  O  O501  1  0.82396365  0.86318558  0.11460364  1
  O  O502  1  0.41723914  0.53527454  0.17351935  1
  O  O503  1  0.61879520  0.88639497  0.20364610  1
  O  O504  1  0.30678376  0.00792374  0.18891807  1
  O  O505  1  0.00867629  0.28867384  0.14385148  1
  O  O506  1  0.23649873  0.10661146  0.14659789  1
  O  O507  1  0.24683267  0.93576995  0.13255550  1
  O  O508  1  0.00449800  0.45982045  0.15652917  1
  O  O509  1  0.04586961  0.99045915  0.16127099  1
  O  O510  1  0.20152913  0.40339884  0.12797233  1
  O  O511  1  0.46229458  0.70780990  0.16645238  1
  O  O512  1  0.77889848  0.68992675  0.12015350  1
  O  O513  1  0.73323495  0.15504112  0.11335607  1
  O  O514  1  0.51313521  0.24206808  0.17540279  1
  O  O515  1  0.49852750  0.94124675  0.15505786  1
  O  O516  1  0.74746541  0.46011939  0.13566952  1
  O  O517  1  0.01204709  0.15183946  0.17520473  1
  O  O518  1  0.23141829  0.24630474  0.11649658  1
  O  O519  1  0.27651829  0.70895128  0.12108244  1
  O  O520  1  0.96112719  0.68759242  0.16713784  1
  O  O521  1  0.69279318  0.99577796  0.12303872  1
  O  O522  1  0.55051167  0.40218312  0.16399502  1
  O  O523  1  0.49991292  0.11029032  0.14381745  1
  O  O524  1  0.74293900  0.28437569  0.14670594  1
  O  O525  1  0.52969710  0.63922092  0.11411594  1
  O  O526  1  0.70761168  0.76038303  0.17399833  1
  O  O527  1  0.33499888  0.53901615  0.11652362  1
  O  O528  1  0.90985462  0.85830006  0.17257596  1
  O  O529  1  0.12101989  0.50984549  0.20603927  1
  O  O530  1  0.81158593  0.38598071  0.19125332  1
  O  O531  1  0.73699869  0.14880231  0.17248046  1
  O  O532  1  0.50387394  0.24428702  0.11714597  1
  O  O533  1  0.57986332  0.80071037  0.12684697  1
  O  O534  1  0.66469406  0.59973725  0.16122123  1
  O  O535  1  0.80343568  0.99400170  0.18145264  1
  O  O536  1  0.44150028  0.40293667  0.10735668  1
  O  O537  1  0.05208636  0.34846922  0.20046803  1
  O  O538  1  0.87900950  0.54905691  0.19498640  1
  O  O539  1  0.62598214  0.49431435  0.21180734  1
  O  O540  1  0.98987811  0.90274322  0.28854986  1
  O  O541  1  0.84733331  0.29888057  0.26667840  1
  O  O542  1  0.76572701  0.09671244  0.23289927  1
  O  O543  1  0.68906782  0.65230082  0.22126667  1
  O  O544  1  0.92077505  0.74567477  0.27812378  1
  O  O545  1  0.06136101  0.34907167  0.30009596  1
  O  O546  1  0.23515428  0.54898746  0.30585191  1
  O  O547  1  0.71846009  0.25833708  0.21988608  1
  O  O548  1  0.89885443  0.13717507  0.27959981  1
  O  O549  1  0.51771171  0.35811038  0.22208363  1
  O  O550  1  0.09895820  0.03791618  0.27886486  1
  O  O551  1  0.30256214  0.38679431  0.31015781  1
  O  O552  1  0.99302814  0.51136545  0.29628333  1
  O  O553  1  0.68419033  0.78628191  0.24854803  1
  O  O554  1  0.92410998  0.61127921  0.25156276  1
  O  O555  1  0.93149870  0.43938451  0.23983187  1
  O  O556  1  0.68414812  0.95716830  0.26051221  1
  O  O557  1  0.73223239  0.49355405  0.26867340  1
  O  O558  1  0.87978516  0.90244555  0.23091248  1
  O  O559  1  0.14978591  0.20906036  0.27366950  1
  O  O560  1  0.46539448  0.18768951  0.22749836  1
  O  O561  1  0.41577020  0.65319273  0.21968919  1
  O  O562  1  0.19465685  0.74305942  0.28028441  1
  O  O563  1  0.18569787  0.43850192  0.26129927  1
  O  O564  1  0.42790268  0.95791905  0.23893313  1
  O  O565  1  0.69439755  0.65354645  0.28016245  1
  O  O566  1  0.91522122  0.74347754  0.21931901  1
  O  O567  1  0.96700841  0.20769796  0.22738980  1
  O  O568  1  0.65000073  0.18755868  0.27265134  1
  O  O569  1  0.38362573  0.49264798  0.23260495  1
  O  O570  1  0.23147153  0.90379249  0.26813064  1
  O  O571  1  0.19058858  0.60856569  0.24836765  1
  O  O572  1  0.42333724  0.78705295  0.25136630  1
  O  O573  1  0.22193523  0.13574982  0.22090303  1
  O  O574  1  0.39486425  0.25935078  0.28101250  1
  O  O575  1  0.01316123  0.03448040  0.22133144  1
  O  O576  1  0.59909710  0.35947709  0.27940660  1
  O  O577  1  0.80596202  0.00935949  0.30988733  1
  O  O578  1  0.49483244  0.88670075  0.29473128  1
  O  O579  1  0.42128262  0.65219077  0.27877617  1
  O  O580  1  0.18749752  0.74468474  0.22186848  1
  O  O581  1  0.26753151  0.29905022  0.23394288  1
  O  O582  1  0.34958718  0.09729665  0.26765123  1
  O  O583  1  0.48930398  0.49528439  0.28922915  1
  O  O584  1  0.12176262  0.90070686  0.21034064  1
  O  O585  1  0.73469961  0.84679738  0.30489688  1
  O  O586  1  0.56615991  0.04829737  0.29976486  1
  O  O587  1  0.30990260  0.99436053  0.31709347  1
  O  O588  1  0.67477823  0.39391394  0.39439847  1
  O  O589  1  0.53524760  0.80123367  0.37165346  1
  O  O590  1  0.44865263  0.59855267  0.33920910  1
  O  O591  1  0.37839942  0.14966865  0.32712138  1
  O  O592  1  0.61458853  0.23649156  0.38372689  1
  O  O593  1  0.74530020  0.84629276  0.40415731  1
  O  O594  1  0.92514591  0.04607528  0.41002898  1
  O  O595  1  0.39953181  0.75888388  0.32636532  1
  O  O596  1  0.57858952  0.63863209  0.38617792  1
  O  O597  1  0.20123326  0.85870967  0.32626783  1
  O  O598  1  0.77453363  0.53804231  0.38580657  1
  O  O599  1  0.99249856  0.88727443  0.41329602  1
  O  O600  1  0.68196278  0.01005957  0.40055252  1
  O  O601  1  0.37799786  0.28437100  0.35451725  1
  O  O602  1  0.61698809  0.10752914  0.35592901  1
  O  O603  1  0.61625808  0.93783105  0.34414600  1
  O  O604  1  0.36258236  0.46078778  0.36673295  1
  O  O605  1  0.42619607  0.99176374  0.37453666  1
  O  O606  1  0.56401030  0.40415878  0.33745346  1
  O  O607  1  0.83158282  0.70846261  0.37769928  1
  O  O608  1  0.14867887  0.68637182  0.33228796  1
  O  O609  1  0.10650547  0.15336494  0.32566779  1
  O  O610  1  0.88904240  0.24581944  0.38588563  1
  O  O611  1  0.86859426  0.93760281  0.36578034  1
  O  O612  1  0.10791437  0.45929320  0.34453598  1
  O  O613  1  0.38707270  0.15045422  0.38560416  1
  O  O614  1  0.60501469  0.24193986  0.32495391  1
  O  O615  1  0.64600567  0.70864305  0.33252545  1
  O  O616  1  0.32856065  0.68759094  0.37930111  1
  O  O617  1  0.06874788  0.99295344  0.33757342  1
  O  O618  1  0.90811879  0.40311136  0.37387612  1
  O  O619  1  0.87916751  0.11018427  0.35391857  1
  O  O620  1  0.10915586  0.29062117  0.35697467  1
  O  O621  1  0.90058476  0.63751285  0.32558457  1
  O  O622  1  0.07929260  0.75984730  0.38479145  1
  O  O623  1  0.69880879  0.53856936  0.32696428  1
  O  O624  1  0.29061380  0.86356532  0.38394862  1
  O  O625  1  0.49158961  0.50630109  0.41354647  1
  O  O626  1  0.17822659  0.38979826  0.39865315  1
  O  O627  1  0.11531306  0.15770799  0.38438496  1
  O  O628  1  0.88019308  0.24506752  0.32680545  1
  O  O629  1  0.95288249  0.79950297  0.33794529  1
  O  O630  1  0.03256610  0.59856816  0.37295683  1
  O  O631  1  0.18737651  0.00028844  0.39611782  1
  O  O632  1  0.80898595  0.40275966  0.31717201  1
  O  O633  1  0.42732865  0.35129895  0.41000429  1
  O  O634  1  0.24647101  0.54909072  0.40907162  1
  O  O635  1  0.98657060  0.49291098  0.41611250  1
  O  O636  1  0.26912702  0.28147824  0.48872430  1
  O  O637  1  0.13687669  0.11045680  0.44190041  1
  O  O638  1  0.04806480  0.65966898  0.43306057  1
  O  O639  1  0.25336617  0.77501165  0.49182250  1
  O  O640  1  0.09785775  0.26952350  0.43414132  1
  O  O641  1  0.28957643  0.13095181  0.48503690  1
  O  O642  1  0.87493343  0.36550835  0.43881132  1
  O  O643  1  0.05011216  0.79721272  0.45954649  1
  O  O644  1  0.26713751  0.61555103  0.46692143  1
  O  O645  1  0.29003705  0.43359475  0.45114366  1
  O  O646  1  0.05120027  0.98013956  0.46196112  1
  O  O647  1  0.06048244  0.50212661  0.46939095  1
  O  O648  1  0.26532233  0.90574325  0.44339398  1
  O  O649  1  0.52595129  0.20131922  0.48108605  1
  O  O650  1  0.84573298  0.18902471  0.43752979  1
  O  O651  1  0.78143080  0.66314202  0.43128934  1
  O  O652  1  0.54918584  0.74731427  0.49075144  1
  O  O653  1  0.54164658  0.42092804  0.46273032  1
  O  O654  1  0.78240207  0.95137969  0.44870652  1
  O  O655  1  0.03604875  0.65697950  0.49109251  1
  O  O656  1  0.27445881  0.74517460  0.43330719  1
  O  O657  1  0.34050981  0.21230444  0.43606228  1
  O  O658  1  0.03010132  0.19899587  0.48507558  1
  O  O659  1  0.74826060  0.49943748  0.44472955  1
  O  O660  1  0.56144028  0.60382656  0.45573557  1
  O  O661  1  0.75744385  0.79599374  0.46346321  1
  O  O662  1  0.60023005  0.13008421  0.43145057  1
  O  O663  1  0.76367789  0.26437458  0.49022839  1
  O  O664  1  0.39355675  0.04032003  0.43301565  1
  O  O665  1  0.75058878  0.63637827  0.49032654  1
  O  O666  1  0.53731700  0.74259490  0.43276496  1
  O  O667  1  0.63736185  0.29013814  0.44161896  1
  O  O668  1  0.73920362  0.09701905  0.48033311  1
  O  O669  1  0.50903680  0.90283240  0.42755082  1
  O  O670  1  0.85818655  0.74935692  0.57159829  1
  O  O671  1  0.99544225  0.35216031  0.56075264  1
  O  O672  1  0.09439070  0.54878296  0.52874870  1
  O  O673  1  0.13484151  0.03060498  0.51436517  1
  O  O674  1  0.92095539  0.90829543  0.56595753  1
  O  O675  1  0.77865554  0.30069451  0.59230550  1
  O  O676  1  0.60826510  0.09964296  0.59532203  1
  O  O677  1  0.11617934  0.38936359  0.51297987  1
  O  O678  1  0.94458547  0.51495519  0.57080718  1
  O  O679  1  0.74614460  0.61113970  0.56394333  1
  O  O680  1  0.53918882  0.26035706  0.60254929  1
  O  O681  1  0.84965806  0.13804391  0.58599921  1
  O  O682  1  0.15716704  0.87157573  0.53541555  1
  O  O683  1  0.90339012  0.04198715  0.53697682  1
  O  O684  1  0.91698483  0.21968705  0.53600020  1
  O  O685  1  0.14148635  0.70504176  0.55010285  1
  O  O686  1  0.11637722  0.15434543  0.55876750  1
  O  O687  1  0.69422018  0.43224818  0.56201910  1
  O  O688  1  0.37149829  0.45164466  0.51628530  1
  O  O689  1  0.45540762  0.00223442  0.49830233  1
  O  O690  1  0.65195360  0.90569924  0.56590311  1
  O  O691  1  0.66292363  0.20938418  0.55275127  1
  O  O692  1  0.40279975  0.66697611  0.53299252  1
  O  O693  1  0.14447291  0.99381137  0.56899592  1
  O  O694  1  0.93965606  0.88741634  0.50810569  1
  O  O695  1  0.87767061  0.42737917  0.51671000  1
  O  O696  1  0.19433920  0.45616141  0.56614174  1
  O  O697  1  0.44239058  0.15855361  0.53150157  1
  O  O698  1  0.60956087  0.74171535  0.55447598  1
  O  O699  1  0.64448853  0.04382675  0.53740477  1
  O  O700  1  0.43194617  0.86164491  0.53667565  1
  O  O701  1  0.63890264  0.50152150  0.51049689  1
  O  O702  1  0.44716919  0.38563752  0.56913325  1
  O  O703  1  0.24119652  0.28808902  0.56550868  1
  O  O704  1  0.04324766  0.63991840  0.59561776  1
  O  O705  1  0.35387497  0.76706860  0.58517011  1
  O  O706  1  0.42049708  0.99643776  0.56367649  1
  O  O707  1  0.67049292  0.90637328  0.50738723  1
  O  O708  1  0.58308667  0.33799330  0.52187208  1
  O  O709  1  0.50051314  0.53781894  0.55647640  1
  O  O710  1  0.35156125  0.15475495  0.58366099  1
  O  O711  1  0.11127609  0.80743748  0.59374021  1
  O  O712  1  0.28558396  0.60433619  0.58885391  1
  O  O713  1  0.54131243  0.65365202  0.60331175  1
  O  O714  1  0.16847212  0.24935004  0.68476272  1
  O  O715  1  0.31395466  0.85063575  0.66120288  1
  O  O716  1  0.39172330  0.05270998  0.62779378  1
  O  O717  1  0.46786563  0.49614966  0.61649326  1
  O  O718  1  0.23532492  0.40809934  0.67465437  1
  O  O719  1  0.09640795  0.80263330  0.69430837  1
  O  O720  1  0.92651104  0.60114642  0.70024086  1
  O  O721  1  0.44606906  0.89376432  0.61446259  1
  O  O722  1  0.27036072  0.01317671  0.67525809  1
  O  O723  1  0.65172117  0.78675335  0.61460485  1
  O  O724  1  0.05833750  0.11457280  0.67349761  1
  O  O725  1  0.85573878  0.76379356  0.70358546  1
  O  O726  1  0.16802572  0.64239096  0.68904663  1
  O  O727  1  0.46653991  0.36152319  0.64394083  1
  O  O728  1  0.23893898  0.54355469  0.64673129  1
  O  O729  1  0.22930891  0.71408585  0.63266326  1
  O  O730  1  0.47105285  0.19037097  0.65655768  1
  O  O731  1  0.42997428  0.65940327  0.66134841  1
  O  O732  1  0.27352406  0.24704126  0.62810953  1
  O  O733  1  0.01270862  0.94181587  0.66650270  1
  O  O734  1  0.69620635  0.96004412  0.62015798  1
  O  O735  1  0.74242050  0.49494851  0.61349854  1
  O  O736  1  0.96226283  0.40758465  0.67549047  1
  O  O737  1  0.97712134  0.70879893  0.65509099  1
  O  O738  1  0.72791953  0.18983421  0.63577320  1
  O  O739  1  0.46391218  0.49830108  0.67529502  1
  O  O740  1  0.24364984  0.40420560  0.61659608  1
  O  O741  1  0.19834967  0.94113423  0.62112477  1
  O  O742  1  0.51390722  0.96244714  0.66720002  1
  O  O743  1  0.78292217  0.65427501  0.62313318  1
  O  O744  1  0.92460636  0.24762805  0.66402356  1
  O  O745  1  0.97577561  0.53949954  0.64403828  1
  O  O746  1  0.73289106  0.36520061  0.64690373  1
  O  O747  1  0.94554959  0.01087699  0.61418235  1
  O  O748  1  0.76655881  0.88981017  0.67386001  1
  O  O749  1  0.14015862  0.11138954  0.61650994  1
  O  O750  1  0.56508355  0.79182177  0.67239691  1
  O  O751  1  0.35432690  0.14017505  0.70596272  1
  O  O752  1  0.66345581  0.26420034  0.69117911  1
  O  O753  1  0.73827896  0.50095065  0.67255879  1
  O  O754  1  0.97125909  0.40596095  0.61713792  1
  O  O755  1  0.89577829  0.84927883  0.62683733  1
  O  O756  1  0.81041201  0.05028389  0.66118464  1
  O  O757  1  0.67181136  0.65612273  0.68154901  1
  O  O758  1  0.03363808  0.24735511  0.60747092  1
  O  O759  1  0.42255591  0.30134112  0.70056516  1
  O  O760  1  0.59626569  0.10102572  0.69502587  1
  O  O761  1  0.84894323  0.15568164  0.71178184  1
  O  O762  1  0.48411628  0.74740945  0.78834578  1
  O  O763  1  0.62733277  0.35125494  0.76674984  1
  O  O764  1  0.70856206  0.55317091  0.73278836  1
  O  O765  1  0.78548782  0.99781960  0.72129574  1
  O  O766  1  0.55352195  0.90451579  0.77810984  1
  O  O767  1  0.41232015  0.30148375  0.79994687  1
  O  O768  1  0.23925451  0.10120413  0.80572471  1
  O  O769  1  0.75597301  0.39182181  0.71991503  1
  O  O770  1  0.57553737  0.51299927  0.77961726  1
  O  O771  1  0.95718171  0.29148876  0.72210686  1
  O  O772  1  0.37515774  0.61241122  0.77873645  1
  O  O773  1  0.17177005  0.26350835  0.80994550  1
  O  O774  1  0.48145369  0.13915421  0.79593964  1
  O  O775  1  0.78958842  0.86338925  0.74829080  1
  O  O776  1  0.55107896  0.03907161  0.75157186  1
  O  O777  1  0.54447020  0.21091404  0.73983411  1
  O  O778  1  0.79052029  0.69282554  0.76048700  1
  O  O779  1  0.74327902  0.15622664  0.76862089  1
  O  O780  1  0.59510135  0.74772836  0.73094713  1
  O  O781  1  0.32433007  0.44130359  0.77360057  1
  O  O782  1  0.00894719  0.46249588  0.72754510  1
  O  O783  1  0.05914325  0.99690662  0.71964869  1
  O  O784  1  0.28017124  0.90704828  0.78018199  1
  O  O785  1  0.28945191  0.21140512  0.76111250  1
  O  O786  1  0.04641808  0.69248239  0.73897651  1
  O  O787  1  0.78048088  0.99609437  0.78013536  1
  O  O788  1  0.55906982  0.90662877  0.71933254  1
  O  O789  1  0.50765772  0.44229888  0.72742647  1
  O  O790  1  0.82424137  0.46282044  0.77285844  1
  O  O791  1  0.09164630  0.15708420  0.73251756  1
  O  O792  1  0.24297248  0.74654813  0.76809893  1
  O  O793  1  0.28473401  0.04110458  0.74832493  1
  O  O794  1  0.05057105  0.86328495  0.75134943  1
  O  O795  1  0.25334723  0.51445822  0.72092688  1
  O  O796  1  0.07841949  0.39114821  0.78078076  1
  O  O797  1  0.46122174  0.61568801  0.72116240  1
  O  O798  1  0.87543558  0.29082788  0.77934130  1
  O  O799  1  0.66770651  0.64059331  0.80946920  1
  O  O800  1  0.97927600  0.76324777  0.79481448  1
  O  O801  1  0.05331074  0.99788981  0.77876608  1
  O  O802  1  0.28603634  0.90522315  0.72173137  1
  O  O803  1  0.20721148  0.35106328  0.73397355  1
  O  O804  1  0.12469465  0.55307163  0.76762670  1
  O  O805  1  0.98575371  0.15534805  0.78910909  1
  O  O806  1  0.35342301  0.74938891  0.71028491  1
  O  O807  1  0.73939751  0.80337311  0.80479798  1
  O  O808  1  0.90770017  0.60169655  0.80004247  1
  O  O809  1  0.16458291  0.65581557  0.81710132  1
  O  O810  1  0.80010373  0.25619493  0.89441199  1
  O  O811  1  0.93854208  0.84889544  0.87155608  1
  O  O812  1  0.02607022  0.05139698  0.83912778  1
  O  O813  1  0.09565984  0.50020844  0.82705753  1
  O  O814  1  0.85928297  0.41363914  0.88378750  1
  O  O815  1  0.72920022  0.80339557  0.90401858  1
  O  O816  1  0.54712611  0.60449139  0.91025065  1
  O  O817  1  0.07534865  0.89132119  0.82634869  1
  O  O818  1  0.89745853  0.01148192  0.88639958  1
  O  O819  1  0.27330970  0.79163595  0.82617495  1
  O  O820  1  0.70089577  0.11162577  0.88562571  1
  O  O821  1  0.48128217  0.76250674  0.91321199  1
  O  O822  1  0.79077412  0.63975577  0.89965311  1
  O  O823  1  0.09604208  0.36561295  0.85438691  1
  O  O824  1  0.85841200  0.54295984  0.85622684  1
  O  O825  1  0.85767651  0.71270162  0.84414754  1
  O  O826  1  0.11254782  0.18924819  0.86660956  1
  O  O827  1  0.04746247  0.65861706  0.87451132  1
  O  O828  1  0.91080841  0.24576820  0.83743656  1
  O  O829  1  0.64317450  0.94175911  0.87749726  1
  O  O830  1  0.32616110  0.96392409  0.83212957  1
  O  O831  1  0.36754063  0.49674443  0.82555192  1
  O  O832  1  0.58506598  0.40379550  0.88573479  1
  O  O833  1  0.60553176  0.71222275  0.86574112  1
  O  O834  1  0.36697664  0.19096397  0.84427085  1
  O  O835  1  0.08696117  0.49978285  0.88554834  1
  O  O836  1  0.86926293  0.40809517  0.82506507  1
  O  O837  1  0.82848291  0.94160555  0.83253823  1
  O  O838  1  0.14630583  0.96222229  0.87921889  1
  O  O839  1  0.40580203  0.65705361  0.83752100  1
  O  O840  1  0.56727358  0.24659806  0.87361016  1
  O  O841  1  0.59493443  0.53942138  0.85393715  1
  O  O842  1  0.36467414  0.35917543  0.85673466  1
  O  O843  1  0.57461033  0.01277288  0.82546547  1
  O  O844  1  0.39542491  0.89024256  0.88456630  1
  O  O845  1  0.77618626  0.11145583  0.82680953  1
  O  O846  1  0.18419351  0.78567728  0.88401350  1
  O  O847  1  0.98348585  0.14394252  0.91336175  1
  O  O848  1  0.29705398  0.26019765  0.89844146  1
  O  O849  1  0.35867548  0.49147483  0.88429807  1
  O  O850  1  0.59377284  0.40448685  0.82675835  1
  O  O851  1  0.52144804  0.85076014  0.83780317  1
  O  O852  1  0.44207162  0.05168326  0.87276374  1
  O  O853  1  0.28604001  0.64819914  0.89623476  1
  O  O854  1  0.66571510  0.24728888  0.81689104  1
  O  O855  1  0.04776354  0.29869317  0.90991727  1
  O  O856  1  0.22861295  0.10080778  0.90894192  1
  O  O857  1  0.48872083  0.15689837  0.91579757  1
  O  O858  1  0.20540512  0.36845582  0.98864097  1
  O  O859  1  0.33762432  0.53960544  0.94195877  1
  O  O860  1  0.42746716  0.98999973  0.93288372  1
  O  O861  1  0.22170025  0.87530469  0.99176990  1
  O  O862  1  0.37703059  0.38031362  0.93419198  1
  O  O863  1  0.18625988  0.51894057  0.98534417  1
  O  O864  1  0.60039089  0.28415365  0.93866445  1
  O  O865  1  0.42543891  0.85233269  0.95961904  1
  O  O866  1  0.20839306  0.03421455  0.96694824  1
  O  O867  1  0.18522792  0.21662555  0.95099211  1
  O  O868  1  0.42379330  0.66987592  0.96178143  1
  O  O869  1  0.41425191  0.14722110  0.96900368  1
  O  O870  1  0.20591868  0.74448239  0.94373741  1
  O  O871  1  0.94919157  0.44902391  0.98085573  1
  O  O872  1  0.62887344  0.46072002  0.93741213  1
  O  O873  1  0.69366936  0.98640853  0.93107505  1
  O  O874  1  0.92611569  0.90355712  0.99076540  1
  O  O875  1  0.93339779  0.22900776  0.96257377  1
  O  O876  1  0.69320223  0.69797307  0.94854633  1
  O  O877  1  0.43985300  0.99255446  0.99090385  1
  O  O878  1  0.20135671  0.90469011  0.93325780  1
  O  O879  1  0.13447251  0.43791954  0.93603491  1
  O  O880  1  0.44520174  0.45119020  0.98500680  1
  O  O881  1  0.72646390  0.15033044  0.94461448  1
  O  O882  1  0.91300097  0.04617299  0.95528154  1
  O  O883  1  0.71879098  0.85347799  0.96315892  1
  O  O884  1  0.87276614  0.52028510  0.93130073  1
  O  O885  1  0.71103430  0.38552118  0.99013716  1
  O  O886  1  0.08141532  0.60953103  0.93352482  1
  O  O887  1  0.72478095  0.01318281  0.99016218  1
  O  O888  1  0.93869830  0.90710211  0.93269777  1
  O  O889  1  0.83745302  0.35991693  0.94156637  1
  O  O890  1  0.73471791  0.55248411  0.98043791  1
  O  O891  1  0.96366583  0.74602471  0.92693455  1
