# generated using pymatgen
data_Li32La14Zr9O55
_symmetry_space_group_name_H-M   'P 1'
_cell_length_a   11.27162600
_cell_length_b   18.66058700
_cell_length_c   49.77477325
_cell_angle_alpha   90.00000000
_cell_angle_beta   90.00000000
_cell_angle_gamma   89.99896220
_symmetry_Int_Tables_number   1
_chemical_formula_structural   Li32La14Zr9O55
_chemical_formula_sum   'Li256 La112 Zr72 O440'
_cell_volume   10469.38477662
_cell_formula_units_Z   8
loop_
 _symmetry_equiv_pos_site_id
 _symmetry_equiv_pos_as_xyz
  1  'x, y, z'
loop_
 _atom_site_type_symbol
 _atom_site_label
 _atom_site_symmetry_multiplicity
 _atom_site_fract_x
 _atom_site_fract_y
 _atom_site_fract_z
 _atom_site_occupancy
  Li  Li0  1  0.88123573  0.69529831  0.09735758  1
  Li  Li1  1  0.56666993  0.19303145  0.08866526  1
  Li  Li2  1  0.70600230  0.78062674  0.10436803  1
  Li  Li3  1  0.74367751  0.11295682  0.08233550  1
  Li  Li4  1  0.34546300  0.97622203  0.01341297  1
  Li  Li5  1  0.47151088  0.44686351  0.07229163  1
  Li  Li6  1  0.35753231  0.85490558  0.05533319  1
  Li  Li7  1  0.45786882  0.51911273  0.02282014  1
  Li  Li8  1  0.63370436  0.51541186  0.04875669  1
  Li  Li9  1  0.12763207  0.92939161  0.00663313  1
  Li  Li10  1  0.38181933  0.57184968  0.07108498  1
  Li  Li11  1  0.38366259  0.82025609  0.00475766  1
  Li  Li12  1  0.62459593  0.14978303  0.04082241  1
  Li  Li13  1  0.12363373  0.21914198  0.02147514  1
  Li  Li14  1  0.82646805  0.55128392  0.01705803  1
  Li  Li15  1  0.89634984  0.81831101  0.07170614  1
  Li  Li16  1  0.86724409  0.53564051  0.06411540  1
  Li  Li17  1  0.94871305  0.86708815  0.02062665  1
  Li  Li18  1  0.36513215  0.69782187  0.09699950  1
  Li  Li19  1  0.06072658  0.19098430  0.08095673  1
  Li  Li20  1  0.19745676  0.61837923  0.10254876  1
  Li  Li21  1  0.23089006  0.27417228  0.07539974  1
  Li  Li22  1  0.69987696  0.43307715  0.01522643  1
  Li  Li23  1  0.97552055  0.93990354  0.06847919  1
  Li  Li24  1  0.99434374  0.57407770  0.09480741  1
  Li  Li25  1  0.45836322  0.31774898  0.09321527  1
  Li  Li26  1  0.49046021  0.81747007  0.08999485  1
  Li  Li27  1  0.97433495  0.07228770  0.09034427  1
  Li  Li28  1  0.55904408  0.19179987  0.20419718  1
  Li  Li29  1  0.26158425  0.70043131  0.19190633  1
  Li  Li30  1  0.37316539  0.27852287  0.20890444  1
  Li  Li31  1  0.44823860  0.61337547  0.18573679  1
  Li  Li32  1  0.97446287  0.45206475  0.11441873  1
  Li  Li33  1  0.15314223  0.94488931  0.17329000  1
  Li  Li34  1  0.03417673  0.36364520  0.15612225  1
  Li  Li35  1  0.10390203  0.02679859  0.13250646  1
  Li  Li36  1  0.33421136  0.00087176  0.14171336  1
  Li  Li37  1  0.80924151  0.39148872  0.14905532  1
  Li  Li38  1  0.05741849  0.07034081  0.18374962  1
  Li  Li39  1  0.05815740  0.32388308  0.10661383  1
  Li  Li40  1  0.32531894  0.64517203  0.14378712  1
  Li  Li41  1  0.83006468  0.74567309  0.14413351  1
  Li  Li42  1  0.55282202  0.06745976  0.11495418  1
  Li  Li43  1  0.55881673  0.32056985  0.18283083  1
  Li  Li44  1  0.53866572  0.02995191  0.16062816  1
  Li  Li45  1  0.59957481  0.36125969  0.13268232  1
  Li  Li46  1  0.06060998  0.19875570  0.20237259  1
  Li  Li47  1  0.76298443  0.69404150  0.19170738  1
  Li  Li48  1  0.87020118  0.11112889  0.20866034  1
  Li  Li49  1  0.95343109  0.77783158  0.18637339  1
  Li  Li50  1  0.49530185  0.93616598  0.11571575  1
  Li  Li51  1  0.64500373  0.44875638  0.17483829  1
  Li  Li52  1  0.66357820  0.06966754  0.19792819  1
  Li  Li53  1  0.16354476  0.82238877  0.19738055  1
  Li  Li54  1  0.16084578  0.32028940  0.19673856  1
  Li  Li55  1  0.65997892  0.57088115  0.19737262  1
  Li  Li56  1  0.24552716  0.69430010  0.30853563  1
  Li  Li57  1  0.94928010  0.19718398  0.29726218  1
  Li  Li58  1  0.05585853  0.77854113  0.31410257  1
  Li  Li59  1  0.13728477  0.11079110  0.29113939  1
  Li  Li60  1  0.67560579  0.94733581  0.22075687  1
  Li  Li61  1  0.83283045  0.44078701  0.27969727  1
  Li  Li62  1  0.72279010  0.86172769  0.26206811  1
  Li  Li63  1  0.78570453  0.52903064  0.23704017  1
  Li  Li64  1  0.99917328  0.49860196  0.25178119  1
  Li  Li65  1  0.50297852  0.89159970  0.25075081  1
  Li  Li66  1  0.75513028  0.57016181  0.28573730  1
  Li  Li67  1  0.76372144  0.82042169  0.21174664  1
  Li  Li68  1  0.00488386  0.14220012  0.24929334  1
  Li  Li69  1  0.50281414  0.24770839  0.25081679  1
  Li  Li70  1  0.25818961  0.57243272  0.21162691  1
  Li  Li71  1  0.24874291  0.82036739  0.28807830  1
  Li  Li72  1  0.22124205  0.53016641  0.26218535  1
  Li  Li73  1  0.28556285  0.86165078  0.23794080  1
  Li  Li74  1  0.74532671  0.69643981  0.30882864  1
  Li  Li75  1  0.44806406  0.19074157  0.29627261  1
  Li  Li76  1  0.56256995  0.61162154  0.31444697  1
  Li  Li77  1  0.63740699  0.27890005  0.29103416  1
  Li  Li78  1  0.17304250  0.44446342  0.22103593  1
  Li  Li79  1  0.33264581  0.94742464  0.27948297  1
  Li  Li80  1  0.34838281  0.57070598  0.30260643  1
  Li  Li81  1  0.84851051  0.31882809  0.30297610  1
  Li  Li82  1  0.84589029  0.82045339  0.30271650  1
  Li  Li83  1  0.34436113  0.06965483  0.30226062  1
  Li  Li84  1  0.94640366  0.19094107  0.41873368  1
  Li  Li85  1  0.63604941  0.69997446  0.40478160  1
  Li  Li86  1  0.77376532  0.27389806  0.42390868  1
  Li  Li87  1  0.81179299  0.61893022  0.39799633  1
  Li  Li88  1  0.36339950  0.44745824  0.32534990  1
  Li  Li89  1  0.51505747  0.93761161  0.38395742  1
  Li  Li90  1  0.41088588  0.36073347  0.36675871  1
  Li  Li91  1  0.47063070  0.03095313  0.33918729  1
  Li  Li92  1  0.67763999  0.00104286  0.35748580  1
  Li  Li93  1  0.19646403  0.39013109  0.35246708  1
  Li  Li94  1  0.45416380  0.06779639  0.38513363  1
  Li  Li95  1  0.45002645  0.32008343  0.31593677  1
  Li  Li96  1  0.67969108  0.64550835  0.35869224  1
  Li  Li97  1  0.17978086  0.74657206  0.35653619  1
  Li  Li98  1  0.95179537  0.06928259  0.31676519  1
  Li  Li99  1  0.94957771  0.32252663  0.39087864  1
  Li  Li100  1  0.90545374  0.02753611  0.36769981  1
  Li  Li101  1  0.97505988  0.36213385  0.34251803  1
  Li  Li102  1  0.44270007  0.19619322  0.41185847  1
  Li  Li103  1  0.13070170  0.69359125  0.40259896  1
  Li  Li104  1  0.26916524  0.11378224  0.41821876  1
  Li  Li105  1  0.30840747  0.77782200  0.39691834  1
  Li  Li106  1  0.85677962  0.94413315  0.32671559  1
  Li  Li107  1  0.03264943  0.45171293  0.38392913  1
  Li  Li108  1  0.03474636  0.07128349  0.40996461  1
  Li  Li109  1  0.51823499  0.81835897  0.40952201  1
  Li  Li110  1  0.54931582  0.31923200  0.40703186  1
  Li  Li111  1  0.01829965  0.57309642  0.40523113  1
  Li  Li112  1  0.03185304  0.93919941  0.43170039  1
  Li  Li113  1  0.21979100  0.41279269  0.48657442  1
  Li  Li114  1  0.07458258  0.86693274  0.47579309  1
  Li  Li115  1  0.14425837  0.53347404  0.43652318  1
  Li  Li116  1  0.36988256  0.50313129  0.45525017  1
  Li  Li117  1  0.87577014  0.92970900  0.49254635  1
  Li  Li118  1  0.17468838  0.55290951  0.48446150  1
  Li  Li119  1  0.12399616  0.81520913  0.42853198  1
  Li  Li120  1  0.38394621  0.15365889  0.46072462  1
  Li  Li121  1  0.88117929  0.22011189  0.47871201  1
  Li  Li122  1  0.62935294  0.57325339  0.42962708  1
  Li  Li123  1  0.62469588  0.82222656  0.49412353  1
  Li  Li124  1  0.54983820  0.52123835  0.47777305  1
  Li  Li125  1  0.65375883  0.85656477  0.44409547  1
  Li  Li126  1  0.54441696  0.44901884  0.42753501  1
  Li  Li127  1  0.65626926  0.97753667  0.48646774  1
  Li  Li128  1  0.61793904  0.42949966  0.59739457  1
  Li  Li129  1  0.93329854  0.93195096  0.58867963  1
  Li  Li130  1  0.79315887  0.34507568  0.60437317  1
  Li  Li131  1  0.75456296  0.01243767  0.58247685  1
  Li  Li132  1  0.15327983  0.14870575  0.51352788  1
  Li  Li133  1  0.02958416  0.67941559  0.57262071  1
  Li  Li134  1  0.14143576  0.26906614  0.55537385  1
  Li  Li135  1  0.04098388  0.60646175  0.52279352  1
  Li  Li136  1  0.86855938  0.61080953  0.54886830  1
  Li  Li137  1  0.37047694  0.19790125  0.50731423  1
  Li  Li138  1  0.11786329  0.55379288  0.57111968  1
  Li  Li139  1  0.11462533  0.30436906  0.50491855  1
  Li  Li140  1  0.87638417  0.97531893  0.54062827  1
  Li  Li141  1  0.37682858  0.90488216  0.52194544  1
  Li  Li142  1  0.67472759  0.57357384  0.51715393  1
  Li  Li143  1  0.60260905  0.30700092  0.57143281  1
  Li  Li144  1  0.63303893  0.59017328  0.56401603  1
  Li  Li145  1  0.55337205  0.25778885  0.52048745  1
  Li  Li146  1  0.13410400  0.42792082  0.59666133  1
  Li  Li147  1  0.43964909  0.93398368  0.58078480  1
  Li  Li148  1  0.30470575  0.50730051  0.60262120  1
  Li  Li149  1  0.26868804  0.85053685  0.57563269  1
  Li  Li150  1  0.79490214  0.69284703  0.51571409  1
  Li  Li151  1  0.52375848  0.18503215  0.56844608  1
  Li  Li152  1  0.50738976  0.55096018  0.59446012  1
  Li  Li153  1  0.04130917  0.80716168  0.59326399  1
  Li  Li154  1  0.00938272  0.30821942  0.59001379  1
  Li  Li155  1  0.52447064  0.05312807  0.59028495  1
  Li  Li156  1  0.94092046  0.93215919  0.70426728  1
  Li  Li157  1  0.23660623  0.42589895  0.69130112  1
  Li  Li158  1  0.12851239  0.84618578  0.70896389  1
  Li  Li159  1  0.04940848  0.51271440  0.68561029  1
  Li  Li160  1  0.52712499  0.67288130  0.61499775  1
  Li  Li161  1  0.34691661  0.18058814  0.67361475  1
  Li  Li162  1  0.46569894  0.76223788  0.65637229  1
  Li  Li163  1  0.39496742  0.09791062  0.63243083  1
  Li  Li164  1  0.16626871  0.12472694  0.64191026  1
  Li  Li165  1  0.69112581  0.73444854  0.64903171  1
  Li  Li166  1  0.44155962  0.05493045  0.68347536  1
  Li  Li167  1  0.44220746  0.80096589  0.60705601  1
  Li  Li168  1  0.17347829  0.48023331  0.64336967  1
  Li  Li169  1  0.67100381  0.37950536  0.64460981  1
  Li  Li170  1  0.94607210  0.05699775  0.61495863  1
  Li  Li171  1  0.94188106  0.80458227  0.68339847  1
  Li  Li172  1  0.96153075  0.09510078  0.66052104  1
  Li  Li173  1  0.90172595  0.76386704  0.63287190  1
  Li  Li174  1  0.44033830  0.92706327  0.70255620  1
  Li  Li175  1  0.73733627  0.43193002  0.69194299  1
  Li  Li176  1  0.62928996  0.01440656  0.70893604  1
  Li  Li177  1  0.54696118  0.34735832  0.68642231  1
  Li  Li178  1  0.00479930  0.18870412  0.61550209  1
  Li  Li179  1  0.85432764  0.67704196  0.67475723  1
  Li  Li180  1  0.83730320  0.05529816  0.69802524  1
  Li  Li181  1  0.33630248  0.30389860  0.69733331  1
  Li  Li182  1  0.33900508  0.80490200  0.69694454  1
  Li  Li183  1  0.83956181  0.55438615  0.69750928  1
  Li  Li184  1  0.25340089  0.43053457  0.80824590  1
  Li  Li185  1  0.55141452  0.92664854  0.79749956  1
  Li  Li186  1  0.44110255  0.34674866  0.81384660  1
  Li  Li187  1  0.36112337  0.01348412  0.79156533  1
  Li  Li188  1  0.82430634  0.17910644  0.72092580  1
  Li  Li189  1  0.66689116  0.68367125  0.77966314  1
  Li  Li190  1  0.77756109  0.26383775  0.76207978  1
  Li  Li191  1  0.71368509  0.59587106  0.73713373  1
  Li  Li192  1  0.50144710  0.62609686  0.75152031  1
  Li  Li193  1  0.99720970  0.23423564  0.75077527  1
  Li  Li194  1  0.74368787  0.55394491  0.78568417  1
  Li  Li195  1  0.73459190  0.30522223  0.71102279  1
  Li  Li196  1  0.49519606  0.98285951  0.75026066  1
  Li  Li197  1  0.99710000  0.87662359  0.75086026  1
  Li  Li198  1  0.24078440  0.55335590  0.71167813  1
  Li  Li199  1  0.24953179  0.30443845  0.78741460  1
  Li  Li200  1  0.27895807  0.59554086  0.76197719  1
  Li  Li201  1  0.21427725  0.26329906  0.73762801  1
  Li  Li202  1  0.75362161  0.42735491  0.80877673  1
  Li  Li203  1  0.05261739  0.93366235  0.79634584  1
  Li  Li204  1  0.93712003  0.51270513  0.81458318  1
  Li  Li205  1  0.86115269  0.84566582  0.79106183  1
  Li  Li206  1  0.32654536  0.68104491  0.72060556  1
  Li  Li207  1  0.16673915  0.17748486  0.77944425  1
  Li  Li208  1  0.15061464  0.55449931  0.80244436  1
  Li  Li209  1  0.64998877  0.80548335  0.80308067  1
  Li  Li210  1  0.65312608  0.30350070  0.80270825  1
  Li  Li211  1  0.15558392  0.05516986  0.80189657  1
  Li  Li212  1  0.55463599  0.93364468  0.91869399  1
  Li  Li213  1  0.86472827  0.42455722  0.90495194  1
  Li  Li214  1  0.72758345  0.85099829  0.92387788  1
  Li  Li215  1  0.68920299  0.50562732  0.89765573  1
  Li  Li216  1  0.13593779  0.67853531  0.82544198  1
  Li  Li217  1  0.98631690  0.18861244  0.88449019  1
  Li  Li218  1  0.08963586  0.76475352  0.86696528  1
  Li  Li219  1  0.03097671  0.09569111  0.83905438  1
  Li  Li220  1  0.82637771  0.12403150  0.85804554  1
  Li  Li221  1  0.30335778  0.73399664  0.85217276  1
  Li  Li222  1  0.04511346  0.05887836  0.88490246  1
  Li  Li223  1  0.04761103  0.80504777  0.81602904  1
  Li  Li224  1  0.82073637  0.47919537  0.85865253  1
  Li  Li225  1  0.32020094  0.37860543  0.85640149  1
  Li  Li226  1  0.54637268  0.05516576  0.81602968  1
  Li  Li227  1  0.55161792  0.80218204  0.89103834  1
  Li  Li228  1  0.59709241  0.09812978  0.86703348  1
  Li  Li229  1  0.52468824  0.76150397  0.84285033  1
  Li  Li230  1  0.05850156  0.92930128  0.91165582  1
  Li  Li231  1  0.37045508  0.43076827  0.90262737  1
  Li  Li232  1  0.23372023  0.01237724  0.91797154  1
  Li  Li233  1  0.19192401  0.34691052  0.89659100  1
  Li  Li234  1  0.64405131  0.18050170  0.82648059  1
  Li  Li235  1  0.46588671  0.67243141  0.88425267  1
  Li  Li236  1  0.46597637  0.05304364  0.90985030  1
  Li  Li237  1  0.98087253  0.30668639  0.90959359  1
  Li  Li238  1  0.95203073  0.80575602  0.90698069  1
  Li  Li239  1  0.48228363  0.55120811  0.90490147  1
  Li  Li240  1  0.46830464  0.18556298  0.93198841  1
  Li  Li241  1  0.28109888  0.70974594  0.98614793  1
  Li  Li242  1  0.42633248  0.25787232  0.97630605  1
  Li  Li243  1  0.35814566  0.59236560  0.93607086  1
  Li  Li244  1  0.13026795  0.62165511  0.95476375  1
  Li  Li245  1  0.62429749  0.19456279  0.99288442  1
  Li  Li246  1  0.32699981  0.57186872  0.98413022  1
  Li  Li247  1  0.37741800  0.30907278  0.92862588  1
  Li  Li248  1  0.11688377  0.97214528  0.96010458  1
  Li  Li249  1  0.61867207  0.90573285  0.97871141  1
  Li  Li250  1  0.87161488  0.55191747  0.92943519  1
  Li  Li251  1  0.87641166  0.30212345  0.99407621  1
  Li  Li252  1  0.95101960  0.60445238  0.97767137  1
  Li  Li253  1  0.84570674  0.26811418  0.94434517  1
  Li  Li254  1  0.95714085  0.67652876  0.92721819  1
  Li  Li255  1  0.84314781  0.14650180  0.98648455  1
  La  La256  1  0.63050786  0.64413356  0.07788876  1
  La  La257  1  0.47882844  0.01220136  0.05826997  1
  La  La258  1  0.32069947  0.37921718  0.03137426  1
  La  La259  1  0.61740520  0.31462065  0.04572896  1
  La  La260  1  0.14666230  0.05769603  0.04220684  1
  La  La261  1  0.14130413  0.57995353  0.04035056  1
  La  La262  1  0.66902121  0.82079547  0.03850227  1
  La  La263  1  0.14738166  0.76298488  0.07029005  1
  La  La264  1  0.95784550  0.37828383  0.04928379  1
  La  La265  1  0.82623495  0.01467650  0.02693540  1
  La  La266  1  0.31975403  0.13100525  0.18361884  1
  La  La267  1  0.81043039  0.25874924  0.10585390  1
  La  La268  1  0.15552970  0.51199719  0.15767679  1
  La  La269  1  0.98549966  0.87771325  0.13148291  1
  La  La270  1  0.32217820  0.81900630  0.14459075  1
  La  La271  1  0.82045143  0.57106180  0.14610316  1
  La  La272  1  0.81853180  0.06968560  0.14442711  1
  La  La273  1  0.31430659  0.32337786  0.14421806  1
  La  La274  1  0.82318369  0.25880357  0.18426215  1
  La  La275  1  0.30911920  0.13685303  0.10552034  1
  La  La276  1  0.66018987  0.88159445  0.15852393  1
  La  La277  1  0.48048992  0.51262871  0.13065638  1
  La  La278  1  0.00923276  0.63233766  0.28926161  1
  La  La279  1  0.50070139  0.76019125  0.21114406  1
  La  La280  1  0.84224711  0.00929518  0.26358851  1
  La  La281  1  0.66531495  0.38124473  0.23637366  1
  La  La282  1  0.00424711  0.32006929  0.24992469  1
  La  La283  1  0.50443759  0.06911427  0.25008214  1
  La  La284  1  0.50389975  0.57099443  0.24995426  1
  La  La285  1  0.00486928  0.82005451  0.25018713  1
  La  La286  1  0.50910453  0.75935300  0.28931429  1
  La  La287  1  0.00005714  0.63113767  0.21101450  1
  La  La288  1  0.34214446  0.38158064  0.26318348  1
  La  La289  1  0.16672865  0.00916301  0.23670641  1
  La  La290  1  0.69779325  0.13672398  0.39431360  1
  La  La291  1  0.18543112  0.25841979  0.31574767  1
  La  La292  1  0.52895990  0.51190399  0.36904995  1
  La  La293  1  0.34934389  0.88093512  0.34214418  1
  La  La294  1  0.68773452  0.81867720  0.35561725  1
  La  La295  1  0.18928377  0.57153518  0.35398222  1
  La  La296  1  0.19109663  0.06797409  0.35621418  1
  La  La297  1  0.69380123  0.32291118  0.35522084  1
  La  La298  1  0.19924555  0.25793897  0.39421773  1
  La  La299  1  0.68875973  0.13113257  0.31621774  1
  La  La300  1  0.02443615  0.87815281  0.36928269  1
  La  La301  1  0.85291765  0.51250186  0.34160416  1
  La  La302  1  0.86423385  0.76316075  0.42854217  1
  La  La303  1  0.17961419  0.01514415  0.47319019  1
  La  La304  1  0.04235587  0.37886550  0.44734941  1
  La  La305  1  0.39068517  0.32118309  0.45541939  1
  La  La306  1  0.86032143  0.05917549  0.45796430  1
  La  La307  1  0.86658863  0.57950990  0.45933601  1
  La  La308  1  0.35776000  0.81071054  0.46356088  1
  La  La309  1  0.37771715  0.63673040  0.42272375  1
  La  La310  1  0.69197997  0.38061766  0.46826481  1
  La  La311  1  0.52718043  0.01306500  0.44193882  1
  La  La312  1  0.86873744  0.48151439  0.57793070  1
  La  La313  1  0.02082629  0.11251207  0.55837100  1
  La  La314  1  0.17956007  0.74573091  0.53143120  1
  La  La315  1  0.88346102  0.81054565  0.54572114  1
  La  La316  1  0.35297490  0.06727433  0.54206873  1
  La  La317  1  0.35846963  0.54496387  0.54032159  1
  La  La318  1  0.83122839  0.30452859  0.53861220  1
  La  La319  1  0.35141408  0.36190344  0.57013142  1
  La  La320  1  0.54197695  0.74673610  0.54949615  1
  La  La321  1  0.67332347  0.11006617  0.52696831  1
  La  La322  1  0.17947539  0.99402408  0.68367375  1
  La  La323  1  0.68955216  0.86645723  0.60583833  1
  La  La324  1  0.34437596  0.61307668  0.65765396  1
  La  La325  1  0.51447336  0.24739306  0.63143866  1
  La  La326  1  0.17781132  0.30618368  0.64447055  1
  La  La327  1  0.67965981  0.55389102  0.64611204  1
  La  La328  1  0.68112442  0.05540111  0.64448039  1
  La  La329  1  0.18585550  0.80177888  0.64424829  1
  La  La330  1  0.67670043  0.86654984  0.68432305  1
  La  La331  1  0.19049847  0.98810184  0.60554996  1
  La  La332  1  0.84003837  0.24340037  0.65839207  1
  La  La333  1  0.01957744  0.61265425  0.63068759  1
  La  La334  1  0.48994689  0.49255752  0.78914975  1
  La  La335  1  0.99901880  0.36499423  0.71105967  1
  La  La336  1  0.65775152  0.11598783  0.76350462  1
  La  La337  1  0.83403557  0.74365940  0.73643405  1
  La  La338  1  0.49543521  0.80482731  0.74995338  1
  La  La339  1  0.99524632  0.05585295  0.75002655  1
  La  La340  1  0.99556601  0.55395041  0.74995811  1
  La  La341  1  0.49497116  0.30473323  0.75006616  1
  La  La342  1  0.99088638  0.36590237  0.78926580  1
  La  La343  1  0.49931105  0.49383177  0.71091485  1
  La  La344  1  0.15748657  0.74331213  0.76321770  1
  La  La345  1  0.33293106  0.11551982  0.73668877  1
  La  La346  1  0.80267967  0.98816581  0.89428619  1
  La  La347  1  0.31441335  0.86603776  0.81577771  1
  La  La348  1  0.97124280  0.61296818  0.86896733  1
  La  La349  1  0.15103572  0.24422136  0.84207340  1
  La  La350  1  0.81253783  0.30604538  0.85553928  1
  La  La351  1  0.31069109  0.55315699  0.85376731  1
  La  La352  1  0.30929189  0.05680545  0.85616034  1
  La  La353  1  0.80627184  0.80211906  0.85521329  1
  La  La354  1  0.30130456  0.86706877  0.89408151  1
  La  La355  1  0.81139128  0.99414601  0.81620060  1
  La  La356  1  0.47591547  0.24671074  0.86912155  1
  La  La357  1  0.64697685  0.61209432  0.84157329  1
  La  La358  1  0.63648048  0.36156568  0.92852959  1
  La  La359  1  0.32029734  0.10990111  0.97319792  1
  La  La360  1  0.45775634  0.74642514  0.94729290  1
  La  La361  1  0.10973151  0.80396167  0.95538612  1
  La  La362  1  0.63976560  0.06571645  0.95790101  1
  La  La363  1  0.63411087  0.54529861  0.95909548  1
  La  La364  1  0.14327247  0.31418941  0.96338991  1
  La  La365  1  0.12282342  0.48782493  0.92269205  1
  La  La366  1  0.80826649  0.74419416  0.96813116  1
  La  La367  1  0.97299793  0.11194411  0.94198242  1
  Zr  Zr368  1  0.73177167  0.44512490  0.09436651  1
  Zr  Zr369  1  0.40058713  0.68975492  0.03304540  1
  Zr  Zr370  1  0.37356218  0.18977531  0.03648604  1
  Zr  Zr371  1  0.73362277  0.94595171  0.09191082  1
  Zr  Zr372  1  0.88692274  0.68676544  0.03924859  1
  Zr  Zr373  1  0.86492708  0.20061121  0.03745296  1
  Zr  Zr374  1  0.21770793  0.44805004  0.09097583  1
  Zr  Zr375  1  0.23173151  0.93964642  0.09236875  1
  Zr  Zr376  1  0.41171038  0.94481416  0.19751811  1
  Zr  Zr377  1  0.06518653  0.19590120  0.14314732  1
  Zr  Zr378  1  0.07365776  0.69623621  0.14462694  1
  Zr  Zr379  1  0.40922112  0.44601577  0.19689030  1
  Zr  Zr380  1  0.56712172  0.19529487  0.14620684  1
  Zr  Zr381  1  0.57201962  0.69743640  0.14478835  1
  Zr  Zr382  1  0.91412658  0.94493989  0.19734108  1
  Zr  Zr383  1  0.91316870  0.44525275  0.19779481  1
  Zr  Zr384  1  0.09733185  0.44516816  0.30224347  1
  Zr  Zr385  1  0.75435373  0.69562699  0.25021451  1
  Zr  Zr386  1  0.75433262  0.19502586  0.25015355  1
  Zr  Zr387  1  0.09547417  0.94428262  0.30310490  1
  Zr  Zr388  1  0.25466406  0.69590085  0.24994900  1
  Zr  Zr389  1  0.25409075  0.19504740  0.24974524  1
  Zr  Zr390  1  0.59826987  0.44544337  0.30271293  1
  Zr  Zr391  1  0.59714278  0.94457513  0.30266998  1
  Zr  Zr392  1  0.77567465  0.94136645  0.40751199  1
  Zr  Zr393  1  0.44149230  0.19585471  0.35392762  1
  Zr  Zr394  1  0.43736718  0.69674045  0.35549792  1
  Zr  Zr395  1  0.79128426  0.44867925  0.40783207  1
  Zr  Zr396  1  0.94354726  0.19440726  0.35659751  1
  Zr  Zr397  1  0.93613335  0.69601557  0.35583844  1
  Zr  Zr398  1  0.27492829  0.94295741  0.40951608  1
  Zr  Zr399  1  0.27918247  0.44465402  0.40531764  1
  Zr  Zr400  1  0.12134513  0.68594064  0.46053663  1
  Zr  Zr401  1  0.14339066  0.20280749  0.46241161  1
  Zr  Zr402  1  0.60959446  0.69289298  0.46696136  1
  Zr  Zr403  1  0.63228683  0.19170733  0.46375369  1
  Zr  Zr404  1  0.76881134  0.68011170  0.59443441  1
  Zr  Zr405  1  0.09866584  0.43544147  0.53305154  1
  Zr  Zr406  1  0.12670958  0.93502745  0.53646464  1
  Zr  Zr407  1  0.76612989  0.17925991  0.59185988  1
  Zr  Zr408  1  0.61256595  0.43824655  0.53925320  1
  Zr  Zr409  1  0.63579398  0.92418027  0.53742873  1
  Zr  Zr410  1  0.28304396  0.67686207  0.59100346  1
  Zr  Zr411  1  0.26820994  0.18526301  0.59237959  1
  Zr  Zr412  1  0.08817915  0.18037236  0.69749857  1
  Zr  Zr413  1  0.43443703  0.92920594  0.64318990  1
  Zr  Zr414  1  0.42635231  0.42883663  0.64447698  1
  Zr  Zr415  1  0.09029631  0.67920667  0.69691119  1
  Zr  Zr416  1  0.93239824  0.92939623  0.64624867  1
  Zr  Zr417  1  0.92781843  0.42774077  0.64478632  1
  Zr  Zr418  1  0.58573352  0.18017896  0.69729837  1
  Zr  Zr419  1  0.58675935  0.67987294  0.69774318  1
  Zr  Zr420  1  0.40264491  0.67943512  0.80212463  1
  Zr  Zr421  1  0.74532636  0.42912155  0.75022588  1
  Zr  Zr422  1  0.74522844  0.92998736  0.75024324  1
  Zr  Zr423  1  0.40426312  0.18031884  0.80300203  1
  Zr  Zr424  1  0.24500305  0.42922387  0.74972341  1
  Zr  Zr425  1  0.24562435  0.92981438  0.74975500  1
  Zr  Zr426  1  0.90111170  0.67923844  0.80270885  1
  Zr  Zr427  1  0.90293121  0.18063466  0.80254135  1
  Zr  Zr428  1  0.72433490  0.18347134  0.90749436  1
  Zr  Zr429  1  0.05879520  0.92984216  0.85387663  1
  Zr  Zr430  1  0.06280732  0.42814382  0.85550407  1
  Zr  Zr431  1  0.70891563  0.67607989  0.90775013  1
  Zr  Zr432  1  0.55675660  0.93024122  0.85658137  1
  Zr  Zr433  1  0.56404091  0.42854486  0.85561707  1
  Zr  Zr434  1  0.22545087  0.18182255  0.90941982  1
  Zr  Zr435  1  0.22102995  0.68032234  0.90518779  1
  Zr  Zr436  1  0.37947827  0.43887203  0.96042189  1
  Zr  Zr437  1  0.35680798  0.92237779  0.96222203  1
  Zr  Zr438  1  0.89091055  0.43211659  0.96703851  1
  Zr  Zr439  1  0.86774133  0.93328842  0.96368390  1
  O  O440  1  0.57145561  0.90084823  0.07578745  1
  O  O441  1  0.39575186  0.28604240  0.05887012  1
  O  O442  1  0.36101861  0.08232756  0.02218249  1
  O  O443  1  0.27248184  0.63144966  0.01041880  1
  O  O444  1  0.51839896  0.74652549  0.06042704  1
  O  O445  1  0.63402319  0.34627703  0.09229367  1
  O  O446  1  0.83890080  0.53407303  0.10115724  1
  O  O447  1  0.27357541  0.22579074  0.00367107  1
  O  O448  1  0.46330874  0.13341364  0.06954554  1
  O  O449  1  0.68522839  0.03311798  0.06416648  1
  O  O450  1  0.88368487  0.37845067  0.09795059  1
  O  O451  1  0.58204916  0.51051870  0.08700044  1
  O  O452  1  0.29229347  0.78158103  0.03585234  1
  O  O453  1  0.49755675  0.59979207  0.04411011  1
  O  O454  1  0.52618257  0.42404964  0.03472755  1
  O  O455  1  0.28904082  0.95245208  0.05121096  1
  O  O456  1  0.30701669  0.48873694  0.05571930  1
  O  O457  1  0.71666295  0.20452080  0.06541229  1
  O  O458  1  0.97100819  0.20614871  0.00264213  1
  O  O459  1  0.96637434  0.60905207  0.01554369  1
  O  O460  1  0.77750109  0.74391791  0.06978012  1
  O  O461  1  0.77734855  0.44966842  0.05235966  1
  O  O462  1  0.01640574  0.96781241  0.03213173  1
  O  O463  1  0.27591683  0.65289758  0.06740158  1
  O  O464  1  0.46449762  0.72718042  0.99692739  1
  O  O465  1  0.53011519  0.22289722  0.02036548  1
  O  O466  1  0.20631452  0.17794427  0.05718151  1
  O  O467  1  0.81729279  0.90097496  0.05789078  1
  O  O468  1  0.76678269  0.60158337  0.04725021  1
  O  O469  1  0.98871761  0.78085509  0.04061445  1
  O  O470  1  0.74179216  0.13574326  0.01449710  1
  O  O471  1  0.95916281  0.25912089  0.06636057  1
  O  O472  1  0.16570949  0.36221251  0.06426515  1
  O  O473  1  0.38796917  0.00682032  0.10126998  1
  O  O474  1  0.07716649  0.87994948  0.08693801  1
  O  O475  1  0.00999037  0.65340016  0.06966910  1
  O  O476  1  0.76882501  0.73623329  0.01277131  1
  O  O477  1  0.80332636  0.30468106  0.02699257  1
  O  O478  1  0.94285278  0.10616073  0.05258335  1
  O  O479  1  0.05945385  0.49552589  0.07428699  1
  O  O480  1  0.32330710  0.84304321  0.09370956  1
  O  O481  1  0.14356547  0.04077725  0.08849444  1
  O  O482  1  0.88722394  0.99554380  0.10463796  1
  O  O483  1  0.25015510  0.39895924  0.18253303  1
  O  O484  1  0.11592073  0.79726841  0.16182558  1
  O  O485  1  0.03786054  0.59452483  0.12936517  1
  O  O486  1  0.94623565  0.15037135  0.11489166  1
  O  O487  1  0.18291134  0.24277314  0.17129183  1
  O  O488  1  0.32754626  0.84506120  0.19490093  1
  O  O489  1  0.49835667  0.04577438  0.20006306  1
  O  O490  1  0.97169564  0.75581200  0.11811356  1
  O  O491  1  0.15893324  0.63474670  0.17583862  1
  O  O492  1  0.77939750  0.86162341  0.11719077  1
  O  O493  1  0.36095131  0.53487690  0.17260460  1
  O  O494  1  0.56713486  0.88454793  0.20517295  1
  O  O495  1  0.25664130  0.00788417  0.19059628  1
  O  O496  1  0.94924576  0.28441680  0.14286122  1
  O  O497  1  0.18595924  0.10841417  0.14452523  1
  O  O498  1  0.20002810  0.93491686  0.13368489  1
  O  O499  1  0.94455309  0.45500534  0.15608467  1
  O  O500  1  0.99691035  0.98965857  0.16263076  1
  O  O501  1  0.13746381  0.40220839  0.12491710  1
  O  O502  1  0.41223395  0.70857575  0.16749831  1
  O  O503  1  0.73003776  0.68553495  0.12209913  1
  O  O504  1  0.66997254  0.14639529  0.11574249  1
  O  O505  1  0.45569099  0.23944361  0.17576626  1
  O  O506  1  0.45117158  0.93513837  0.15599637  1
  O  O507  1  0.68902256  0.45416735  0.13540276  1
  O  O508  1  0.95741694  0.15026609  0.17393363  1
  O  O509  1  0.17025149  0.23955746  0.11139944  1
  O  O510  1  0.22979175  0.70746745  0.12169814  1
  O  O511  1  0.91378306  0.68386208  0.16853392  1
  O  O512  1  0.64537363  0.98940339  0.12592425  1
  O  O513  1  0.48937682  0.39959733  0.16231921  1
  O  O514  1  0.44894822  0.10437450  0.14376201  1
  O  O515  1  0.68405409  0.28285773  0.14708553  1
  O  O516  1  0.47542072  0.63954512  0.11548659  1
  O  O517  1  0.65708605  0.75785658  0.17524929  1
  O  O518  1  0.27305804  0.53476839  0.11476832  1
  O  O519  1  0.86338512  0.85567235  0.17411232  1
  O  O520  1  0.06664871  0.50666758  0.20449287  1
  O  O521  1  0.75603262  0.38385685  0.18959744  1
  O  O522  1  0.68427802  0.14813310  0.17381771  1
  O  O523  1  0.44800501  0.23978918  0.11751315  1
  O  O524  1  0.53541327  0.79796406  0.12664734  1
  O  O525  1  0.60943551  0.59613443  0.16162834  1
  O  O526  1  0.75352651  0.99180154  0.18304159  1
  O  O527  1  0.37905517  0.40175166  0.10428542  1
  O  O528  1  0.99572462  0.34346437  0.20011775  1
  O  O529  1  0.82516178  0.54493529  0.19599899  1
  O  O530  1  0.56972098  0.49131096  0.21070684  1
  O  O531  1  0.93705065  0.89886922  0.28886803  1
  O  O532  1  0.79595232  0.29510376  0.26740255  1
  O  O533  1  0.71445020  0.09379363  0.23324563  1
  O  O534  1  0.63812191  0.64901981  0.22179668  1
  O  O535  1  0.87142314  0.74225921  0.27837359  1
  O  O536  1  0.01348809  0.34333460  0.30005076  1
  O  O537  1  0.18332875  0.54532644  0.30415310  1
  O  O538  1  0.66589385  0.25649136  0.22031501  1
  O  O539  1  0.84326183  0.13477912  0.28018551  1
  O  O540  1  0.46134912  0.35718227  0.22109308  1
  O  O541  1  0.04493236  0.03400524  0.27927690  1
  O  O542  1  0.25315379  0.38329027  0.30993562  1
  O  O543  1  0.94272507  0.50574749  0.29432951  1
  O  O544  1  0.63673759  0.78404959  0.24867409  1
  O  O545  1  0.86979699  0.60588042  0.25224884  1
  O  O546  1  0.87610014  0.43367832  0.23942089  1
  O  O547  1  0.63228143  0.95549099  0.26084975  1
  O  O548  1  0.67961002  0.48949377  0.26801126  1
  O  O549  1  0.82986807  0.90102073  0.23180099  1
  O  O550  1  0.09634414  0.20475066  0.27291639  1
  O  O551  1  0.41236584  0.18418475  0.22737492  1
  O  O552  1  0.36538136  0.65122459  0.21964215  1
  O  O553  1  0.14399295  0.74078069  0.28016191  1
  O  O554  1  0.13156969  0.43427606  0.26041392  1
  O  O555  1  0.37625864  0.95546186  0.23933991  1
  O  O556  1  0.64390348  0.64999733  0.28040252  1
  O  O557  1  0.86552344  0.74022971  0.22013005  1
  O  O558  1  0.91174689  0.20497636  0.22679164  1
  O  O559  1  0.59654278  0.18405707  0.27275410  1
  O  O560  1  0.32763348  0.49069239  0.23149164  1
  O  O561  1  0.17944905  0.90074925  0.26856790  1
  O  O562  1  0.13676418  0.60759121  0.24809658  1
  O  O563  1  0.37235254  0.78452031  0.25179150  1
  O  O564  1  0.16455796  0.13498601  0.21967693  1
  O  O565  1  0.34349488  0.25605757  0.27955437  1
  O  O566  1  0.96375877  0.03512573  0.22104358  1
  O  O567  1  0.54585340  0.35602786  0.27853609  1
  O  O568  1  0.75248922  0.00764674  0.30964881  1
  O  O569  1  0.44219178  0.88438194  0.29481001  1
  O  O570  1  0.37105281  0.64861509  0.27809177  1
  O  O571  1  0.13905791  0.74342112  0.22168013  1
  O  O572  1  0.21300689  0.29513796  0.23246289  1
  O  O573  1  0.29373927  0.09382280  0.26681979  1
  O  O574  1  0.43805101  0.49092333  0.28892684  1
  O  O575  1  0.07284515  0.90005763  0.21171457  1
  O  O576  1  0.68167174  0.84499217  0.30534751  1
  O  O577  1  0.51066932  0.04599317  0.29996711  1
  O  O578  1  0.25611712  0.99141991  0.31722952  1
  O  O579  1  0.62964981  0.40276049  0.39505371  1
  O  O580  1  0.47497663  0.79797722  0.37297942  1
  O  O581  1  0.39983153  0.59568148  0.33834653  1
  O  O582  1  0.32522984  0.14802520  0.32639098  1
  O  O583  1  0.56118726  0.24096283  0.38245930  1
  O  O584  1  0.68428897  0.84528738  0.40579498  1
  O  O585  1  0.86336184  0.04305261  0.41166603  1
  O  O586  1  0.35312665  0.75740639  0.32481719  1
  O  O587  1  0.53451334  0.63817736  0.38452854  1
  O  O588  1  0.14623065  0.85572404  0.32682541  1
  O  O589  1  0.73749246  0.53580273  0.38431929  1
  O  O590  1  0.92850300  0.88160480  0.41296415  1
  O  O591  1  0.61910088  0.00868392  0.39887046  1
  O  O592  1  0.32338680  0.28285810  0.35300077  1
  O  O593  1  0.55906775  0.10512553  0.35632469  1
  O  O594  1  0.55730444  0.93596099  0.34410510  1
  O  O595  1  0.32064074  0.45381424  0.36440665  1
  O  O596  1  0.36178246  0.98854345  0.37485346  1
  O  O597  1  0.51896276  0.39850566  0.33723444  1
  O  O598  1  0.77988610  0.70808757  0.37896683  1
  O  O599  1  0.09613910  0.68472272  0.33195618  1
  O  O600  1  0.05130336  0.14962957  0.32580834  1
  O  O601  1  0.83807500  0.23822648  0.38834066  1
  O  O602  1  0.80895244  0.93593757  0.36633551  1
  O  O603  1  0.06417883  0.45495513  0.34365294  1
  O  O604  1  0.33939910  0.14734197  0.38470132  1
  O  O605  1  0.55277797  0.23956453  0.32422496  1
  O  O606  1  0.59811635  0.70718025  0.33286040  1
  O  O607  1  0.28016378  0.68502548  0.37809257  1
  O  O608  1  0.01293633  0.98943564  0.33781978  1
  O  O609  1  0.87033969  0.40202653  0.37384819  1
  O  O610  1  0.82169622  0.10769890  0.35527727  1
  O  O611  1  0.05797849  0.28348416  0.35701907  1
  O  O612  1  0.85342294  0.63422546  0.32434501  1
  O  O613  1  0.03586162  0.75530653  0.38299555  1
  O  O614  1  0.64723970  0.53281854  0.32730915  1
  O  O615  1  0.23061770  0.85853353  0.38409482  1
  O  O616  1  0.42870041  0.50853599  0.41327025  1
  O  O617  1  0.12681017  0.37925615  0.39971669  1
  O  O618  1  0.06230027  0.14828768  0.38476301  1
  O  O619  1  0.82562685  0.24203549  0.32849447  1
  O  O620  1  0.89415335  0.79671530  0.33851516  1
  O  O621  1  0.97399528  0.59369199  0.37062814  1
  O  O622  1  0.12062694  0.99267955  0.39593538  1
  O  O623  1  0.75802248  0.39803334  0.31638264  1
  O  O624  1  0.37489498  0.34564285  0.40801644  1
  O  O625  1  0.17701538  0.53677971  0.39960074  1
  O  O626  1  0.95219966  0.49356100  0.42487508  1
  O  O627  1  0.20471574  0.30584506  0.47379295  1
  O  O628  1  0.06414912  0.10718574  0.44791249  1
  O  O629  1  0.99961174  0.65115416  0.43031304  1
  O  O630  1  0.23284537  0.73683794  0.48803301  1
  O  O631  1  0.05172974  0.25854040  0.43231872  1
  O  O632  1  0.26224844  0.13724393  0.48632977  1
  O  O633  1  0.84004885  0.36145820  0.43377610  1
  O  O634  1  0.02140625  0.78037262  0.45807135  1
  O  O635  1  0.24018588  0.59882420  0.45449524  1
  O  O636  1  0.23085512  0.44428511  0.44729100  1
  O  O637  1  0.98990680  0.96867894  0.46786402  1
  O  O638  1  0.19038038  0.90002477  0.44331592  1
  O  O639  1  0.47844340  0.22763726  0.48164151  1
  O  O640  1  0.80044166  0.18024083  0.44372900  1
  O  O641  1  0.73603283  0.65307914  0.43286779  1
  O  O642  1  0.50940699  0.74500572  0.49561898  1
  O  O643  1  0.49891682  0.42494434  0.46396126  1
  O  O644  1  0.71818414  0.95427410  0.44899157  1
  O  O645  1  0.03626239  0.61208134  0.48509194  1
  O  O646  1  0.23719123  0.73963450  0.43113615  1
  O  O647  1  0.29293115  0.20596988  0.43538260  1
  O  O648  1  0.03166131  0.21060296  0.49666954  1
  O  O649  1  0.70833555  0.49048304  0.44333230  1
  O  O650  1  0.51490169  0.60120863  0.45634978  1
  O  O651  1  0.71923767  0.78328344  0.46362914  1
  O  O652  1  0.54381071  0.13561943  0.43112278  1
  O  O653  1  0.73283477  0.22605370  0.49761510  1
  O  O654  1  0.32146839  0.03252477  0.43623167  1
  O  O655  1  0.73136217  0.63226676  0.49030653  1
  O  O656  1  0.49749643  0.74262250  0.43638186  1
  O  O657  1  0.61107347  0.28700829  0.44140720  1
  O  O658  1  0.64167763  0.08421860  0.47816153  1
  O  O659  1  0.43866213  0.89976888  0.42527670  1
  O  O660  1  0.92885559  0.22427680  0.57572837  1
  O  O661  1  0.10412835  0.83891084  0.55890829  1
  O  O662  1  0.13839560  0.04252522  0.52221960  1
  O  O663  1  0.22816076  0.49236470  0.51044212  1
  O  O664  1  0.98124284  0.37921464  0.56069794  1
  O  O665  1  0.86665241  0.77870192  0.59226644  1
  O  O666  1  0.66225891  0.59080023  0.60110542  1
  O  O667  1  0.22717497  0.89920360  0.50378212  1
  O  O668  1  0.03680207  0.99140750  0.56961275  1
  O  O669  1  0.81431754  0.09193148  0.56420688  1
  O  O670  1  0.61653517  0.74644483  0.59806385  1
  O  O671  1  0.91887166  0.61495464  0.58702260  1
  O  O672  1  0.20605510  0.34296224  0.53589995  1
  O  O673  1  0.00203269  0.52559572  0.54402831  1
  O  O674  1  0.97444810  0.70099937  0.53495061  1
  O  O675  1  0.21075302  0.17234410  0.55120429  1
  O  O676  1  0.19365550  0.63633337  0.55577442  1
  O  O677  1  0.78372346  0.92064964  0.56538802  1
  O  O678  1  0.52926132  0.91806848  0.50275876  1
  O  O679  1  0.53372006  0.51626835  0.51559661  1
  O  O680  1  0.72189649  0.38121129  0.56978976  1
  O  O681  1  0.72283593  0.67545907  0.55243447  1
  O  O682  1  0.48321337  0.15710941  0.53221370  1
  O  O683  1  0.22358085  0.47228509  0.56727407  1
  O  O684  1  0.03420522  0.39738307  0.49704861  1
  O  O685  1  0.97013096  0.90231490  0.52028016  1
  O  O686  1  0.29381857  0.94681590  0.55725903  1
  O  O687  1  0.68252379  0.22423197  0.55783023  1
  O  O688  1  0.73248513  0.52337396  0.54737743  1
  O  O689  1  0.51061691  0.34406720  0.54047897  1
  O  O690  1  0.75828113  0.98905465  0.51439875  1
  O  O691  1  0.54138295  0.86578076  0.56638535  1
  O  O692  1  0.33449242  0.76284263  0.56433166  1
  O  O693  1  0.11206860  0.11798881  0.60127223  1
  O  O694  1  0.42249498  0.24518775  0.58689243  1
  O  O695  1  0.48924475  0.47138364  0.56964316  1
  O  O696  1  0.73118669  0.38890571  0.51287548  1
  O  O697  1  0.69747009  0.81981503  0.52702896  1
  O  O698  1  0.55723353  0.01857290  0.55255237  1
  O  O699  1  0.44110586  0.62951039  0.57418604  1
  O  O700  1  0.17618342  0.28171326  0.59370956  1
  O  O701  1  0.35630335  0.08426659  0.58847254  1
  O  O702  1  0.61276977  0.12952882  0.60458060  1
  O  O703  1  0.24973175  0.72603626  0.68278908  1
  O  O704  1  0.38388464  0.32804880  0.66173475  1
  O  O705  1  0.46224187  0.53059719  0.62909903  1
  O  O706  1  0.55320426  0.97485121  0.61489626  1
  O  O707  1  0.31681920  0.88200358  0.67131434  1
  O  O708  1  0.17239336  0.28018731  0.69489001  1
  O  O709  1  0.00204113  0.07926783  0.69999679  1
  O  O710  1  0.52868232  0.36907513  0.61820049  1
  O  O711  1  0.34138277  0.49054595  0.67566152  1
  O  O712  1  0.72094417  0.26351849  0.61713819  1
  O  O713  1  0.13872991  0.59042830  0.67260146  1
  O  O714  1  0.93294423  0.24076159  0.70501462  1
  O  O715  1  0.24332636  0.11716616  0.69057311  1
  O  O716  1  0.55037237  0.84080213  0.64282994  1
  O  O717  1  0.31348984  0.01654380  0.64460796  1
  O  O718  1  0.29987643  0.19019277  0.63366885  1
  O  O719  1  0.55566738  0.67027105  0.65606017  1
  O  O720  1  0.50275276  0.13557411  0.66260031  1
  O  O721  1  0.36240525  0.72272813  0.62505406  1
  O  O722  1  0.08755158  0.41677454  0.66742141  1
  O  O723  1  0.76982676  0.43974073  0.62213353  1
  O  O724  1  0.82926223  0.97836870  0.61580739  1
  O  O725  1  0.04395994  0.88541057  0.67580686  1
  O  O726  1  0.04882527  0.18997367  0.65596187  1
  O  O727  1  0.81112973  0.67110397  0.63543210  1
  O  O728  1  0.54225675  0.97499226  0.67398346  1
  O  O729  1  0.32935553  0.88523613  0.61155203  1
  O  O730  1  0.27007742  0.41768030  0.62154417  1
  O  O731  1  0.58610424  0.44157642  0.66851425  1
  O  O732  1  0.85457354  0.13561613  0.62584822  1
  O  O733  1  0.01045252  0.72570764  0.66237397  1
  O  O734  1  0.05022749  0.02031926  0.64374024  1
  O  O735  1  0.81497029  0.84194099  0.64698117  1
  O  O736  1  0.02448790  0.48586726  0.61556572  1
  O  O737  1  0.84205904  0.36755850  0.67524479  1
  O  O738  1  0.22706419  0.59028258  0.61478717  1
  O  O739  1  0.63686325  0.26961525  0.67409696  1
  O  O740  1  0.43330289  0.61842199  0.70444230  1
  O  O741  1  0.74363676  0.74144144  0.68965982  1
  O  O742  1  0.81541610  0.97657916  0.67388633  1
  O  O743  1  0.05165991  0.88496880  0.61755778  1
  O  O744  1  0.96442397  0.32729493  0.62669763  1
  O  O745  1  0.89048353  0.52901611  0.66173936  1
  O  O746  1  0.74623045  0.13315912  0.68301535  1
  O  O747  1  0.12159383  0.72343722  0.60429529  1
  O  O748  1  0.50413066  0.78165450  0.70011902  1
  O  O749  1  0.67469686  0.58024492  0.69600357  1
  O  O750  1  0.92992698  0.63374012  0.71078188  1
  O  O751  1  0.56288326  0.22531495  0.78860485  1
  O  O752  1  0.70347629  0.83000194  0.76752000  1
  O  O753  1  0.78532239  0.03117847  0.73330788  1
  O  O754  1  0.86144551  0.47607823  0.72182334  1
  O  O755  1  0.62842254  0.38195050  0.77825215  1
  O  O756  1  0.48622920  0.78116130  0.80001639  1
  O  O757  1  0.31640539  0.57936900  0.80398069  1
  O  O758  1  0.83338737  0.86832672  0.72036948  1
  O  O759  1  0.65574939  0.99017541  0.78022468  1
  O  O760  1  0.03798646  0.76819755  0.72102554  1
  O  O761  1  0.45457958  0.09009925  0.77935740  1
  O  O762  1  0.24697706  0.74144577  0.80996723  1
  O  O763  1  0.55711255  0.61887143  0.79428836  1
  O  O764  1  0.86391164  0.34117721  0.74868910  1
  O  O765  1  0.62975248  0.51891815  0.75227778  1
  O  O766  1  0.62376088  0.69143905  0.73941762  1
  O  O767  1  0.86768018  0.16999649  0.76072577  1
  O  O768  1  0.81974032  0.63520904  0.76803170  1
  O  O769  1  0.66994101  0.22442890  0.73168950  1
  O  O770  1  0.40297433  0.91969927  0.77309077  1
  O  O771  1  0.08740455  0.94053311  0.72737617  1
  O  O772  1  0.13381176  0.47413397  0.71956487  1
  O  O773  1  0.35520167  0.38406831  0.78001599  1
  O  O774  1  0.36837417  0.69058673  0.76034155  1
  O  O775  1  0.12338464  0.16948231  0.73929125  1
  O  O776  1  0.85561041  0.47468327  0.78043393  1
  O  O777  1  0.63427576  0.38497507  0.72002968  1
  O  O778  1  0.58767340  0.92029405  0.72696859  1
  O  O779  1  0.90317294  0.94087882  0.77278665  1
  O  O780  1  0.17201796  0.63459380  0.73144163  1
  O  O781  1  0.32035558  0.22380351  0.76847052  1
  O  O782  1  0.36264264  0.51756893  0.74800505  1
  O  O783  1  0.12791889  0.34033185  0.75169935  1
  O  O784  1  0.33462972  0.98990213  0.71965253  1
  O  O785  1  0.15609403  0.86860450  0.77950192  1
  O  O786  1  0.53582574  0.09043123  0.72109288  1
  O  O787  1  0.95350071  0.76884542  0.77858794  1
  O  O788  1  0.74792029  0.11733739  0.80933778  1
  O  O789  1  0.05793214  0.24098416  0.79468287  1
  O  O790  1  0.12846831  0.47613035  0.77802381  1
  O  O791  1  0.36119651  0.38195080  0.72161148  1
  O  O792  1  0.28650091  0.82958339  0.73252147  1
  O  O793  1  0.20605449  0.03103641  0.76669250  1
  O  O794  1  0.06127987  0.63406437  0.78880641  1
  O  O795  1  0.42687404  0.22540256  0.71152775  1
  O  O796  1  0.81795588  0.28009403  0.80526908  1
  O  O797  1  0.99000964  0.07960105  0.79977655  1
  O  O798  1  0.24380456  0.13315888  0.81719348  1
  O  O799  1  0.87056138  0.72226580  0.89501644  1
  O  O800  1  0.02563317  0.32693221  0.87309714  1
  O  O801  1  0.10001344  0.52902751  0.83826072  1
  O  O802  1  0.17496229  0.97669738  0.82610068  1
  O  O803  1  0.93977943  0.88446826  0.88253302  1
  O  O804  1  0.81539706  0.27977862  0.90592051  1
  O  O805  1  0.63757759  0.08167245  0.91160717  1
  O  O806  1  0.14708337  0.36755051  0.82485384  1
  O  O807  1  0.96576029  0.48659782  0.88455725  1
  O  O808  1  0.35401913  0.26878730  0.82678658  1
  O  O809  1  0.76292131  0.58902156  0.88428070  1
  O  O810  1  0.57127277  0.24297576  0.91293769  1
  O  O811  1  0.88180943  0.11654368  0.89879127  1
  O  O812  1  0.17641201  0.84248547  0.85302792  1
  O  O813  1  0.94154676  0.02078130  0.85614122  1
  O  O814  1  0.94316801  0.18959810  0.84399708  1
  O  O815  1  0.17880686  0.67132093  0.86433062  1
  O  O816  1  0.13830061  0.13724811  0.87470582  1
  O  O817  1  0.98055795  0.72658138  0.83720947  1
  O  O818  1  0.72017547  0.41658099  0.87875989  1
  O  O819  1  0.40344454  0.44015737  0.83176194  1
  O  O820  1  0.44865439  0.97500108  0.82586508  1
  O  O821  1  0.66263862  0.88637678  0.88831168  1
  O  O822  1  0.69212422  0.18881548  0.86626242  1
  O  O823  1  0.43551686  0.66937339  0.84360701  1
  O  O824  1  0.16115308  0.97863138  0.88449638  1
  O  O825  1  0.94680809  0.88572415  0.82431532  1
  O  O826  1  0.90209555  0.41744071  0.83286688  1
  O  O827  1  0.22032894  0.43999360  0.87801702  1
  O  O828  1  0.48771272  0.13531388  0.83764096  1
  O  O829  1  0.62956085  0.72253005  0.87382711  1
  O  O830  1  0.67928797  0.01663011  0.85534337  1
  O  O831  1  0.44241803  0.84114084  0.85695756  1
  O  O832  1  0.64646133  0.49040541  0.82409916  1
  O  O833  1  0.46427311  0.36936246  0.88275516  1
  O  O834  1  0.85297465  0.59190239  0.82739992  1
  O  O835  1  0.27024359  0.26618218  0.88402635  1
  O  O836  1  0.07199438  0.61609666  0.91323709  1
  O  O837  1  0.37311512  0.74586721  0.89967963  1
  O  O838  1  0.43778786  0.97607724  0.88473316  1
  O  O839  1  0.67431683  0.88255942  0.82840271  1
  O  O840  1  0.60608505  0.32778044  0.83844755  1
  O  O841  1  0.52652825  0.53078851  0.87039796  1
  O  O842  1  0.37865794  0.13116130  0.89595085  1
  O  O843  1  0.74148523  0.72652508  0.81641393  1
  O  O844  1  0.12499211  0.77906473  0.90797446  1
  O  O845  1  0.32449300  0.58891605  0.89920270  1
  O  O846  1  0.54776060  0.63094980  0.92477309  1
  O  O847  1  0.29580936  0.81907462  0.97346065  1
  O  O848  1  0.43581150  0.01792834  0.94771277  1
  O  O849  1  0.50114310  0.47314656  0.93006336  1
  O  O850  1  0.26756757  0.38831287  0.98792325  1
  O  O851  1  0.44870325  0.86650362  0.93224785  1
  O  O852  1  0.23744105  0.98816452  0.98605423  1
  O  O853  1  0.66002192  0.76345202  0.93361306  1
  O  O854  1  0.47931726  0.34430336  0.95810876  1
  O  O855  1  0.26184577  0.52624124  0.95401727  1
  O  O856  1  0.26964442  0.68036037  0.94714179  1
  O  O857  1  0.51044478  0.15613563  0.96805126  1
  O  O858  1  0.30975662  0.22457985  0.94329449  1
  O  O859  1  0.02163989  0.89742173  0.98142687  1
  O  O860  1  0.69959043  0.94464633  0.94367029  1
  O  O861  1  0.76491059  0.47171326  0.93272981  1
  O  O862  1  0.99118242  0.37996512  0.99568162  1
  O  O863  1  0.00162394  0.70013398  0.96374577  1
  O  O864  1  0.78166389  0.17054726  0.94895177  1
  O  O865  1  0.46472887  0.51254476  0.98499970  1
  O  O866  1  0.26335946  0.38474967  0.93105564  1
  O  O867  1  0.20776734  0.91929059  0.93508581  1
  O  O868  1  0.46776311  0.91481944  0.99656598  1
  O  O869  1  0.79182306  0.63438274  0.94325969  1
  O  O870  1  0.98589478  0.52380323  0.95634600  1
  O  O871  1  0.78120794  0.34179732  0.96377530  1
  O  O872  1  0.95651320  0.98931722  0.93117828  1
  O  O873  1  0.76667875  0.89937347  0.99761455  1
  O  O874  1  0.17842734  0.09239642  0.93624497  1
  O  O875  1  0.76873902  0.49278248  0.99021637  1
  O  O876  1  0.00281252  0.38223459  0.93640661  1
  O  O877  1  0.88890240  0.83785018  0.94137805  1
  O  O878  1  0.85750679  0.04071820  0.97806212  1
  O  O879  1  0.06117938  0.22481520  0.92509771  1
