# generated using pymatgen
data_Li68La30Zr18O115
_symmetry_space_group_name_H-M   'P 1'
_cell_length_a   11.27162600
_cell_length_b   18.66058700
_cell_length_c   52.36884456
_cell_angle_alpha   90.00000000
_cell_angle_beta   90.00000000
_cell_angle_gamma   89.99896220
_symmetry_Int_Tables_number   1
_chemical_formula_structural   Li68La30Zr18O115
_chemical_formula_sum   'Li272 La120 Zr72 O460'
_cell_volume   11015.00917502
_cell_formula_units_Z   4
loop_
 _symmetry_equiv_pos_site_id
 _symmetry_equiv_pos_as_xyz
  1  'x, y, z'
loop_
 _atom_site_type_symbol
 _atom_site_label
 _atom_site_symmetry_multiplicity
 _atom_site_fract_x
 _atom_site_fract_y
 _atom_site_fract_z
 _atom_site_occupancy
  Li  Li0  1  0.15756018  0.20547977  0.00508272  1
  Li  Li1  1  0.55898480  0.23151812  0.09319207  1
  Li  Li2  1  0.01077965  0.31222999  0.99724630  1
  Li  Li3  1  0.75402694  0.15138294  0.08939133  1
  Li  Li4  1  0.30436138  0.94501970  0.00025769  1
  Li  Li5  1  0.44334138  0.46723210  0.08163204  1
  Li  Li6  1  0.33183450  0.88568304  0.04683912  1
  Li  Li7  1  0.37444259  0.56310012  0.03668030  1
  Li  Li8  1  0.59762678  0.52970206  0.04652461  1
  Li  Li9  1  0.13781089  0.95130005  0.03814767  1
  Li  Li10  1  0.36986699  0.59583625  0.08226672  1
  Li  Li11  1  0.46512680  0.82937324  0.99929923  1
  Li  Li12  1  0.62550819  0.18028953  0.04887140  1
  Li  Li13  1  0.13050382  0.27180910  0.04735551  1
  Li  Li14  1  0.88537200  0.58885275  0.01331007  1
  Li  Li15  1  0.85008221  0.85154825  0.08807365  1
  Li  Li16  1  0.82510986  0.56774668  0.06398353  1
  Li  Li17  1  0.93798732  0.91664369  0.05474148  1
  Li  Li18  1  0.66928452  0.21278671  0.00502922  1
  Li  Li19  1  0.05224771  0.22627002  0.09532164  1
  Li  Li20  1  0.38957828  0.12040196  0.00057882  1
  Li  Li21  1  0.22902122  0.30820555  0.08910133  1
  Li  Li22  1  0.79511917  0.48668478  0.02952492  1
  Li  Li23  1  0.97619767  0.00136334  0.08588728  1
  Li  Li24  1  0.95288521  0.60200873  0.10177267  1
  Li  Li25  1  0.45677282  0.34703055  0.09896612  1
  Li  Li26  1  0.45094310  0.85103544  0.09795585  1
  Li  Li27  1  0.95778160  0.10699642  0.10207228  1
  Li  Li28  1  0.85490256  0.72411474  0.10455329  1
  Li  Li29  1  0.23979502  0.73051267  0.19479610  1
  Li  Li30  1  0.66551334  0.81144457  0.11144398  1
  Li  Li31  1  0.43356484  0.64444065  0.18946435  1
  Li  Li32  1  0.97352411  0.47902540  0.12297518  1
  Li  Li33  1  0.13315690  0.97499025  0.17740740  1
  Li  Li34  1  0.02013536  0.39237681  0.16327505  1
  Li  Li35  1  0.08898378  0.05712093  0.13776358  1
  Li  Li36  1  0.30720949  0.02952120  0.14716346  1
  Li  Li37  1  0.80229528  0.42511914  0.14896910  1
  Li  Li38  1  0.04415822  0.09987441  0.18654863  1
  Li  Li39  1  0.04064872  0.34821690  0.11837866  1
  Li  Li40  1  0.29767235  0.67554334  0.15136665  1
  Li  Li41  1  0.80719147  0.77997059  0.14796512  1
  Li  Li42  1  0.57065527  0.10231098  0.11105163  1
  Li  Li43  1  0.55271642  0.35110130  0.18274466  1
  Li  Li44  1  0.52037298  0.06024794  0.16074815  1
  Li  Li45  1  0.57853592  0.39365178  0.13732584  1
  Li  Li46  1  0.35218417  0.72732271  0.10429898  1
  Li  Li47  1  0.74238506  0.72611159  0.19392047  1
  Li  Li48  1  0.17892837  0.64177561  0.11126030  1
  Li  Li49  1  0.92896079  0.80995893  0.18914127  1
  Li  Li50  1  0.47524986  0.97556081  0.12123475  1
  Li  Li51  1  0.62942667  0.47854519  0.17777086  1
  Li  Li52  1  0.64302046  0.10179286  0.19981577  1
  Li  Li53  1  0.14182404  0.85178042  0.20019892  1
  Li  Li54  1  0.14580324  0.35069025  0.20037491  1
  Li  Li55  1  0.64178521  0.60180458  0.20020886  1
  Li  Li56  1  0.54191619  0.22589350  0.20588702  1
  Li  Li57  1  0.92999157  0.23086078  0.29477017  1
  Li  Li58  1  0.36032897  0.30961785  0.21087474  1
  Li  Li59  1  0.12016756  0.14335108  0.28909814  1
  Li  Li60  1  0.65729156  0.98015912  0.22177545  1
  Li  Li61  1  0.81490722  0.47444512  0.27740451  1
  Li  Li62  1  0.70388954  0.89349182  0.26199514  1
  Li  Li63  1  0.76633002  0.55961116  0.23840492  1
  Li  Li64  1  0.98737922  0.53084402  0.24910000  1
  Li  Li65  1  0.48885189  0.92417657  0.24924959  1
  Li  Li66  1  0.72689033  0.60130696  0.28599441  1
  Li  Li67  1  0.73508428  0.85151815  0.21591609  1
  Li  Li68  1  0.98412718  0.17373226  0.25110240  1
  Li  Li69  1  0.47961548  0.27937446  0.25314010  1
  Li  Li70  1  0.24664551  0.60181218  0.21255109  1
  Li  Li71  1  0.23386072  0.85135982  0.28401974  1
  Li  Li72  1  0.20313277  0.56039847  0.26122160  1
  Li  Li73  1  0.26827121  0.89357124  0.23796250  1
  Li  Li74  1  0.04402563  0.22827826  0.20603992  1
  Li  Li75  1  0.42972856  0.22107511  0.29597134  1
  Li  Li76  1  0.85535580  0.14312859  0.21102684  1
  Li  Li77  1  0.62279589  0.30941259  0.28934075  1
  Li  Li78  1  0.15626772  0.47478306  0.22199125  1
  Li  Li79  1  0.31561564  0.97900214  0.27788519  1
  Li  Li80  1  0.32873289  0.60134039  0.29968375  1
  Li  Li81  1  0.82852588  0.35184889  0.29949368  1
  Li  Li82  1  0.82851019  0.85190845  0.29986630  1
  Li  Li83  1  0.32921329  0.10077429  0.30076370  1
  Li  Li84  1  0.22876430  0.72581387  0.30565568  1
  Li  Li85  1  0.61294326  0.72729767  0.39554543  1
  Li  Li86  1  0.04238777  0.80926098  0.31052309  1
  Li  Li87  1  0.80128203  0.64210240  0.38850297  1
  Li  Li88  1  0.34014827  0.47495842  0.32214073  1
  Li  Li89  1  0.49896919  0.97141670  0.37911669  1
  Li  Li90  1  0.39188666  0.39393818  0.36146619  1
  Li  Li91  1  0.45348626  0.06017913  0.33896698  1
  Li  Li92  1  0.66241357  0.02929841  0.35383120  1
  Li  Li93  1  0.16286006  0.42372650  0.35195323  1
  Li  Li94  1  0.40965120  0.09701774  0.38720737  1
  Li  Li95  1  0.43389849  0.34885449  0.31364261  1
  Li  Li96  1  0.67015563  0.67596364  0.35008771  1
  Li  Li97  1  0.16540366  0.78098354  0.35149963  1
  Li  Li98  1  0.93508890  0.10128865  0.31154614  1
  Li  Li99  1  0.93418498  0.35270593  0.37973917  1
  Li  Li100  1  0.88586877  0.05873742  0.36221251  1
  Li  Li101  1  0.95296495  0.39276320  0.33591107  1
  Li  Li102  1  0.72952242  0.72994751  0.30531414  1
  Li  Li103  1  0.11257260  0.72588090  0.39531290  1
  Li  Li104  1  0.54031720  0.64449621  0.31033835  1
  Li  Li105  1  0.30460808  0.81105695  0.38890874  1
  Li  Li106  1  0.83857817  0.97702149  0.32302458  1
  Li  Li107  1  0.99824753  0.48370860  0.37689594  1
  Li  Li108  1  0.02631401  0.11054875  0.39856874  1
  Li  Li109  1  0.51730209  0.84808465  0.40206035  1
  Li  Li110  1  0.51553729  0.34558266  0.40159934  1
  Li  Li111  1  0.02090752  0.60322019  0.39933876  1
  Li  Li112  1  0.92179738  0.23168235  0.40474900  1
  Li  Li113  1  0.42408929  0.29607226  0.50512272  1
  Li  Li114  1  0.73937662  0.30906428  0.41058477  1
  Li  Li115  1  0.52292249  0.13475485  0.49951874  1
  Li  Li116  1  0.00053620  0.00081412  0.41342402  1
  Li  Li117  1  0.17196706  0.46094213  0.47396240  1
  Li  Li118  1  0.02195496  0.91631169  0.44448694  1
  Li  Li119  1  0.16008870  0.55654253  0.45055527  1
  Li  Li120  1  0.37200544  0.53079786  0.45314689  1
  Li  Li121  1  0.83006513  0.96821930  0.46818199  1
  Li  Li122  1  0.07435287  0.58935520  0.49051212  1
  Li  Li123  1  0.11751556  0.85318774  0.41065366  1
  Li  Li124  1  0.35857096  0.17550358  0.46598655  1
  Li  Li125  1  0.86177820  0.27866745  0.45049286  1
  Li  Li126  1  0.61269529  0.59656398  0.41122087  1
  Li  Li127  1  0.58483940  0.83228611  0.48186481  1
  Li  Li128  1  0.58566628  0.56020851  0.46125225  1
  Li  Li129  1  0.64840502  0.89240487  0.44458432  1
  Li  Li130  1  0.42303628  0.22237937  0.41198869  1
  Li  Li131  1  0.81219284  0.21470201  0.49210500  1
  Li  Li132  1  0.23955844  0.15008812  0.41393672  1
  Li  Li133  1  0.89870563  0.31659283  0.50428470  1
  Li  Li134  1  0.52466853  0.46965805  0.41664970  1
  Li  Li135  1  0.62942586  0.94989925  0.49775458  1
  Li  Li136  1  0.29153671  0.09593487  0.50506935  1
  Li  Li137  1  0.88901976  0.06952739  0.59271982  1
  Li  Li138  1  0.43769303  0.98857868  0.49774910  1
  Li  Li139  1  0.69469237  0.14950430  0.58934093  1
  Li  Li140  1  0.14370715  0.34730395  0.50121802  1
  Li  Li141  1  0.00631361  0.83341439  0.58136894  1
  Li  Li142  1  0.11866655  0.41319306  0.54627716  1
  Li  Li143  1  0.07635572  0.73604835  0.53638454  1
  Li  Li144  1  0.85443243  0.77044796  0.54662021  1
  Li  Li145  1  0.31241620  0.35114923  0.53882122  1
  Li  Li146  1  0.07993440  0.70483315  0.58233323  1
  Li  Li147  1  0.98407866  0.46792778  0.49963844  1
  Li  Li148  1  0.82347500  0.12206267  0.54856823  1
  Li  Li149  1  0.31887064  0.02963039  0.54749282  1
  Li  Li150  1  0.56244232  0.70967921  0.51313220  1
  Li  Li151  1  0.60250217  0.44899134  0.58842395  1
  Li  Li152  1  0.62245510  0.73151679  0.56405160  1
  Li  Li153  1  0.51114936  0.38432122  0.55466817  1
  Li  Li154  1  0.77979602  0.08771780  0.50476190  1
  Li  Li155  1  0.39838671  0.07529739  0.59539811  1
  Li  Li156  1  0.05887999  0.17903375  0.50074809  1
  Li  Li157  1  0.22169002  0.99330577  0.58905262  1
  Li  Li158  1  0.65495603  0.81143959  0.52958416  1
  Li  Li159  1  0.47315673  0.29931096  0.58585588  1
  Li  Li160  1  0.49589686  0.69800394  0.60139635  1
  Li  Li161  1  0.99253524  0.95364868  0.59897454  1
  Li  Li162  1  0.99929037  0.44934592  0.59800197  1
  Li  Li163  1  0.49214333  0.19343286  0.60203348  1
  Li  Li164  1  0.59515891  0.57698673  0.60437030  1
  Li  Li165  1  0.20989208  0.56958612  0.69462264  1
  Li  Li166  1  0.78580724  0.48874519  0.61126104  1
  Li  Li167  1  0.01561012  0.65645906  0.68898842  1
  Li  Li168  1  0.47705218  0.82151693  0.62260091  1
  Li  Li169  1  0.31687060  0.32597124  0.67774548  1
  Li  Li170  1  0.43041072  0.90828078  0.66288762  1
  Li  Li171  1  0.36113872  0.24367883  0.63774609  1
  Li  Li172  1  0.14335169  0.27127998  0.64708085  1
  Li  Li173  1  0.65097327  0.87495902  0.64969220  1
  Li  Li174  1  0.40407323  0.20019233  0.68594328  1
  Li  Li175  1  0.40916975  0.95264161  0.61780313  1
  Li  Li176  1  0.15402096  0.62502665  0.65183394  1
  Li  Li177  1  0.64152307  0.52020153  0.64768308  1
  Li  Li178  1  0.87870553  0.19805316  0.61052816  1
  Li  Li179  1  0.89774234  0.94859870  0.68253679  1
  Li  Li180  1  0.92941845  0.24043701  0.66033951  1
  Li  Li181  1  0.87033503  0.90619698  0.63740145  1
  Li  Li182  1  0.09734982  0.57345626  0.60445043  1
  Li  Li183  1  0.70609620  0.57282354  0.69347995  1
  Li  Li184  1  0.27111133  0.65891476  0.61100499  1
  Li  Li185  1  0.51997833  0.49029570  0.68899519  1
  Li  Li186  1  0.97390631  0.32537807  0.62107463  1
  Li  Li187  1  0.82057596  0.82023337  0.67806171  1
  Li  Li188  1  0.80712247  0.19827711  0.69975763  1
  Li  Li189  1  0.30829850  0.44832962  0.69989301  1
  Li  Li190  1  0.30518162  0.94948053  0.70018256  1
  Li  Li191  1  0.80795505  0.69766048  0.69985010  1
  Li  Li192  1  0.90696647  0.07445966  0.70576578  1
  Li  Li193  1  0.51968673  0.06984354  0.79479607  1
  Li  Li194  1  0.08724025  0.99095444  0.71056489  1
  Li  Li195  1  0.32897577  0.15737160  0.78896045  1
  Li  Li196  1  0.79328100  0.32057170  0.72181994  1
  Li  Li197  1  0.63524792  0.82612921  0.77733448  1
  Li  Li198  1  0.74627652  0.40720606  0.76202798  1
  Li  Li199  1  0.68533667  0.74032063  0.73774467  1
  Li  Li200  1  0.46829380  0.76921223  0.75014752  1
  Li  Li201  1  0.96451257  0.37547983  0.74999991  1
  Li  Li202  1  0.72007912  0.69870056  0.78497337  1
  Li  Li203  1  0.71431086  0.44819495  0.71534812  1
  Li  Li204  1  0.46864046  0.12592909  0.75203456  1
  Li  Li205  1  0.97048416  0.02060805  0.75335734  1
  Li  Li206  1  0.20423219  0.69834485  0.71177297  1
  Li  Li207  1  0.21395505  0.44874228  0.78319375  1
  Li  Li208  1  0.24914012  0.73973492  0.76034641  1
  Li  Li209  1  0.18216607  0.40649219  0.73724709  1
  Li  Li210  1  0.40649458  0.07289517  0.70589046  1
  Li  Li211  1  0.02062059  0.07901482  0.79596816  1
  Li  Li212  1  0.59318141  0.15727591  0.71093266  1
  Li  Li213  1  0.82714202  0.99067623  0.78920909  1
  Li  Li214  1  0.29528973  0.82516138  0.72169361  1
  Li  Li215  1  0.13590533  0.32040491  0.77777979  1
  Li  Li216  1  0.12084833  0.69907274  0.79945364  1
  Li  Li217  1  0.62241199  0.94850220  0.79939296  1
  Li  Li218  1  0.62066634  0.44826699  0.79989546  1
  Li  Li219  1  0.12101938  0.19868902  0.80036778  1
  Li  Li220  1  0.22008116  0.57409214  0.80575198  1
  Li  Li221  1  0.83733441  0.57106457  0.89572364  1
  Li  Li222  1  0.40443601  0.49065268  0.81076002  1
  Li  Li223  1  0.65016719  0.65752259  0.88813037  1
  Li  Li224  1  0.11037884  0.82393543  0.82133975  1
  Li  Li225  1  0.95210581  0.32874314  0.87864936  1
  Li  Li226  1  0.05952412  0.90478277  0.85977770  1
  Li  Li227  1  0.99735410  0.23960798  0.83848307  1
  Li  Li228  1  0.78947813  0.27003105  0.85387270  1
  Li  Li229  1  0.28954967  0.87740516  0.85176576  1
  Li  Li230  1  0.03995240  0.20313062  0.88691205  1
  Li  Li231  1  0.01272529  0.95061386  0.81216958  1
  Li  Li232  1  0.78533313  0.62324772  0.85115351  1
  Li  Li233  1  0.28636174  0.51909958  0.85256869  1
  Li  Li234  1  0.51661732  0.19882444  0.81200460  1
  Li  Li235  1  0.51424255  0.94738844  0.87955476  1
  Li  Li236  1  0.56371043  0.24118703  0.86218834  1
  Li  Li237  1  0.49899340  0.90794973  0.83520711  1
  Li  Li238  1  0.72186870  0.57088815  0.80530936  1
  Li  Li239  1  0.33783849  0.57534580  0.89557552  1
  Li  Li240  1  0.90910055  0.65484720  0.81023688  1
  Li  Li241  1  0.14416383  0.48911605  0.88914806  1
  Li  Li242  1  0.61225226  0.32272167  0.82265198  1
  Li  Li243  1  0.45244104  0.81742404  0.87679443  1
  Li  Li244  1  0.42229492  0.18973891  0.89851287  1
  Li  Li245  1  0.93251702  0.45094470  0.90175746  1
  Li  Li246  1  0.93663026  0.95405933  0.90166374  1
  Li  Li247  1  0.43701722  0.69503051  0.89788891  1
  Li  Li248  1  0.52851703  0.06884062  0.90467749  1
  Li  Li249  1  0.02207998  0.00650215  0.00515289  1
  Li  Li250  1  0.70879285  0.99150641  0.91037385  1
  Li  Li251  1  0.92140989  0.16619156  0.99999954  1
  Li  Li252  1  0.44971253  0.29926486  0.91378256  1
  Li  Li253  1  0.28530171  0.81077127  0.97012147  1
  Li  Li254  1  0.42744740  0.38421640  0.94429602  1
  Li  Li255  1  0.30849375  0.73100948  0.93367291  1
  Li  Li256  1  0.08848829  0.76493422  0.95404850  1
  Li  Li257  1  0.62034131  0.33252658  0.96796022  1
  Li  Li258  1  0.37577425  0.70448084  0.98827806  1
  Li  Li259  1  0.33171243  0.44777279  0.91068128  1
  Li  Li260  1  0.09018332  0.12675205  0.96668234  1
  Li  Li261  1  0.58848831  0.02191853  0.95060728  1
  Li  Li262  1  0.83670962  0.70325997  0.91113219  1
  Li  Li263  1  0.86080634  0.46705123  0.98163679  1
  Li  Li264  1  0.86795311  0.74050839  0.96114307  1
  Li  Li265  1  0.80130662  0.40872260  0.94359267  1
  Li  Li266  1  0.02660737  0.07714392  0.91255459  1
  Li  Li267  1  0.63628446  0.08512390  0.99231210  1
  Li  Li268  1  0.20891095  0.14959758  0.91400849  1
  Li  Li269  1  0.54908561  0.98108198  0.00492583  1
  Li  Li270  1  0.92761308  0.82858344  0.91704448  1
  Li  Li271  1  0.81800155  0.35035378  0.99784887  1
  La  La272  1  0.61435122  0.66386443  0.08672005  1
  La  La273  1  0.07102506  0.81313897  0.01151434  1
  La  La274  1  0.45950029  0.04063406  0.05963427  1
  La  La275  1  0.29646309  0.40466691  0.03793191  1
  La  La276  1  0.61441027  0.35264566  0.04456174  1
  La  La277  1  0.12330219  0.10554330  0.05298426  1
  La  La278  1  0.10009082  0.60300748  0.05451176  1
  La  La279  1  0.61094165  0.84880706  0.05071744  1
  La  La280  1  0.11941309  0.79145740  0.08548425  1
  La  La281  1  0.62897085  0.66824522  0.01287194  1
  La  La282  1  0.95269056  0.41838222  0.06552971  1
  La  La283  1  0.79201385  0.05408324  0.04225769  1
  La  La284  1  0.30586178  0.16176645  0.18702097  1
  La  La285  1  0.78977296  0.29459350  0.11257580  1
  La  La286  1  0.13695730  0.54034967  0.16293190  1
  La  La287  1  0.96703107  0.91165115  0.13737858  1
  La  La288  1  0.29987148  0.85101591  0.14996485  1
  La  La289  1  0.79763350  0.60253465  0.15016647  1
  La  La290  1  0.80314310  0.10132547  0.15035319  1
  La  La291  1  0.29968153  0.35076348  0.14995094  1
  La  La292  1  0.80701476  0.29076977  0.18708358  1
  La  La293  1  0.30282199  0.16399045  0.11216217  1
  La  La294  1  0.63977832  0.91272046  0.16296521  1
  La  La295  1  0.46261548  0.54417764  0.13817492  1
  La  La296  1  0.98890350  0.66268746  0.28696751  1
  La  La297  1  0.47861356  0.79167094  0.21280266  1
  La  La298  1  0.82320907  0.04058664  0.26254052  1
  La  La299  1  0.64698902  0.41093080  0.23679416  1
  La  La300  1  0.98637929  0.35170005  0.24999189  1
  La  La301  1  0.48608093  0.10170233  0.25017204  1
  La  La302  1  0.48486946  0.60136084  0.24987307  1
  La  La303  1  0.98506747  0.85115607  0.24985675  1
  La  La304  1  0.49124539  0.79164638  0.28708635  1
  La  La305  1  0.98053364  0.66265155  0.21258489  1
  La  La306  1  0.32303296  0.41258085  0.26285025  1
  La  La307  1  0.14842851  0.04083505  0.23737273  1
  La  La308  1  0.67630922  0.16280396  0.38898790  1
  La  La309  1  0.17010222  0.29095701  0.31339914  1
  La  La310  1  0.50498955  0.54387437  0.36071669  1
  La  La311  1  0.33187005  0.91280986  0.33677391  1
  La  La312  1  0.67062677  0.85195664  0.35000729  1
  La  La313  1  0.17051162  0.60342902  0.34903272  1
  La  La314  1  0.17077576  0.10022609  0.34972107  1
  La  La315  1  0.67354843  0.35036160  0.35002618  1
  La  La316  1  0.18409021  0.29011525  0.38775971  1
  La  La317  1  0.66917709  0.16092473  0.31354260  1
  La  La318  1  0.00354084  0.91128044  0.36204703  1
  La  La319  1  0.83254232  0.54109461  0.33663019  1
  La  La320  1  0.32753362  0.66916750  0.48656828  1
  La  La321  1  0.84615194  0.79183324  0.41425655  1
  La  La322  1  0.18018500  0.04951231  0.45831841  1
  La  La323  1  0.01993156  0.41727467  0.43312826  1
  La  La324  1  0.34990925  0.35977469  0.45129550  1
  La  La325  1  0.86949685  0.11059856  0.44633761  1
  La  La326  1  0.86728389  0.60220495  0.44579581  1
  La  La327  1  0.35610594  0.84428667  0.44956224  1
  La  La328  1  0.87452782  0.81669853  0.48862520  1
  La  La329  1  0.34724063  0.66224238  0.41276831  1
  La  La330  1  0.67292204  0.40837350  0.46078655  1
  La  La331  1  0.50850717  0.03214013  0.44032508  1
  La  La332  1  0.83464631  0.63676300  0.58660717  1
  La  La333  1  0.37602293  0.48874993  0.51120186  1
  La  La334  1  0.98909485  0.26056564  0.55929267  1
  La  La335  1  0.15269879  0.89649593  0.53774926  1
  La  La336  1  0.83494851  0.94837015  0.54451433  1
  La  La337  1  0.32517735  0.19588485  0.55296351  1
  La  La338  1  0.34853139  0.69703323  0.55405553  1
  La  La339  1  0.83985415  0.45242512  0.55049841  1
  La  La340  1  0.33041147  0.50872579  0.58541979  1
  La  La341  1  0.82046199  0.63164730  0.51273840  1
  La  La342  1  0.49677868  0.88219859  0.56507241  1
  La  La343  1  0.65637519  0.24657331  0.54191301  1
  La  La344  1  0.14354128  0.13838045  0.68688250  1
  La  La345  1  0.65957016  0.00565241  0.61238571  1
  La  La346  1  0.31347425  0.76016163  0.66247770  1
  La  La347  1  0.48269807  0.38862265  0.63727028  1
  La  La348  1  0.14983837  0.44933708  0.64988058  1
  La  La349  1  0.65215774  0.69788568  0.64988662  1
  La  La350  1  0.64706852  0.19899102  0.65022686  1
  La  La351  1  0.15042595  0.94959414  0.64970787  1
  La  La352  1  0.64301103  0.00964068  0.68690825  1
  La  La353  1  0.14656535  0.13685712  0.61210173  1
  La  La354  1  0.81019555  0.38766262  0.66274938  1
  La  La355  1  0.98740534  0.75637644  0.63782595  1
  La  La356  1  0.46088964  0.63639676  0.78686426  1
  La  La357  1  0.97110444  0.50838777  0.71264012  1
  La  La358  1  0.62703279  0.25957790  0.76238408  1
  La  La359  1  0.80322583  0.88915712  0.73657495  1
  La  La360  1  0.46406897  0.94840706  0.74987139  1
  La  La361  1  0.96409926  0.19821631  0.75000507  1
  La  La362  1  0.96585408  0.69842219  0.74958661  1
  La  La363  1  0.46503170  0.44869162  0.74971476  1
  La  La364  1  0.95844189  0.50845912  0.78689387  1
  La  La365  1  0.46961279  0.63774753  0.71241729  1
  La  La366  1  0.12784129  0.88727514  0.76248903  1
  La  La367  1  0.30191594  0.25891774  0.73716088  1
  La  La368  1  0.77392984  0.13726853  0.88900020  1
  La  La369  1  0.27930581  0.00928197  0.81330967  1
  La  La370  1  0.94510307  0.75586745  0.86046122  1
  La  La371  1  0.11897465  0.38716411  0.83653314  1
  La  La372  1  0.77956447  0.44750884  0.84983479  1
  La  La373  1  0.27997657  0.69655161  0.84889390  1
  La  La374  1  0.27921973  0.19978483  0.84956120  1
  La  La375  1  0.77677567  0.94959362  0.85010686  1
  La  La376  1  0.26595056  0.01042581  0.88791254  1
  La  La377  1  0.78105728  0.13879949  0.81347128  1
  La  La378  1  0.44653092  0.38824305  0.86206535  1
  La  La379  1  0.61804375  0.75838728  0.83638313  1
  La  La380  1  0.12111545  0.62974180  0.98728958  1
  La  La381  1  0.60336090  0.50821678  0.91416283  1
  La  La382  1  0.26969094  0.25107820  0.95820913  1
  La  La383  1  0.43109395  0.88397164  0.93336227  1
  La  La384  1  0.10516829  0.93753822  0.95235096  1
  La  La385  1  0.58047573  0.18957697  0.94636624  1
  La  La386  1  0.58610078  0.69814517  0.94581012  1
  La  La387  1  0.09223599  0.45546742  0.94970687  1
  La  La388  1  0.57374248  0.48455515  0.98850575  1
  La  La389  1  0.09990736  0.63651163  0.91291729  1
  La  La390  1  0.77942514  0.89229017  0.96047177  1
  La  La391  1  0.94139961  0.26823233  0.94007067  1
  Zr  Zr392  1  0.69957098  0.47766706  0.10018309  1
  Zr  Zr393  1  0.35546636  0.71578230  0.04636196  1
  Zr  Zr394  1  0.37482077  0.22414682  0.04630320  1
  Zr  Zr395  1  0.71021178  0.97704151  0.10009214  1
  Zr  Zr396  1  0.86047923  0.73063165  0.04901177  1
  Zr  Zr397  1  0.88067404  0.23516627  0.04986180  1
  Zr  Zr398  1  0.21026912  0.47368752  0.10029029  1
  Zr  Zr399  1  0.21690218  0.96955984  0.09837578  1
  Zr  Zr400  1  0.39319991  0.97760466  0.19984819  1
  Zr  Zr401  1  0.05211093  0.22510079  0.15034349  1
  Zr  Zr402  1  0.04973877  0.72595149  0.14961421  1
  Zr  Zr403  1  0.39293820  0.47593688  0.20009476  1
  Zr  Zr404  1  0.55094118  0.22542735  0.14972629  1
  Zr  Zr405  1  0.54945443  0.72855960  0.14982298  1
  Zr  Zr406  1  0.89415714  0.97565794  0.19995038  1
  Zr  Zr407  1  0.89190395  0.47656150  0.20004771  1
  Zr  Zr408  1  0.07836689  0.47694125  0.29967302  1
  Zr  Zr409  1  0.73490981  0.72603767  0.24980472  1
  Zr  Zr410  1  0.73643609  0.22641311  0.25009654  1
  Zr  Zr411  1  0.07735393  0.97554124  0.29989195  1
  Zr  Zr412  1  0.23478069  0.72572256  0.25005184  1
  Zr  Zr413  1  0.23663665  0.22652146  0.25022847  1
  Zr  Zr414  1  0.57839786  0.47516574  0.29961076  1
  Zr  Zr415  1  0.57888783  0.97733244  0.30029684  1
  Zr  Zr416  1  0.76069567  0.97322273  0.40196585  1
  Zr  Zr417  1  0.42600416  0.22450378  0.35206550  1
  Zr  Zr418  1  0.42170937  0.72837344  0.35011411  1
  Zr  Zr419  1  0.76146777  0.47374624  0.39922937  1
  Zr  Zr420  1  0.92272087  0.22616048  0.34976998  1
  Zr  Zr421  1  0.92010763  0.72657854  0.35025951  1
  Zr  Zr422  1  0.26193692  0.97500023  0.39972227  1
  Zr  Zr423  1  0.26711992  0.48066664  0.39912873  1
  Zr  Zr424  1  0.09732859  0.73238769  0.45108726  1
  Zr  Zr425  1  0.11323238  0.23566189  0.45239083  1
  Zr  Zr426  1  0.60195218  0.70972266  0.45250816  1
  Zr  Zr427  1  0.62039634  0.22438523  0.45593066  1
  Zr  Zr428  1  0.74961319  0.82294236  0.59989229  1
  Zr  Zr429  1  0.09265879  0.58361351  0.54697444  1
  Zr  Zr430  1  0.07418965  0.07692594  0.54634897  1
  Zr  Zr431  1  0.73926125  0.32338295  0.59983245  1
  Zr  Zr432  1  0.58872584  0.56900868  0.54875409  1
  Zr  Zr433  1  0.56794382  0.06594531  0.54968354  1
  Zr  Zr434  1  0.23977539  0.82692261  0.59990033  1
  Zr  Zr435  1  0.23242653  0.33086695  0.59841363  1
  Zr  Zr436  1  0.05629720  0.32237532  0.69969379  1
  Zr  Zr437  1  0.39764530  0.07525793  0.65021734  1
  Zr  Zr438  1  0.39996130  0.57434026  0.64940616  1
  Zr  Zr439  1  0.05776120  0.82409780  0.69979281  1
  Zr  Zr440  1  0.89881658  0.07471914  0.64953120  1
  Zr  Zr441  1  0.90039895  0.57197225  0.64965973  1
  Zr  Zr442  1  0.55592897  0.32433369  0.69978927  1
  Zr  Zr443  1  0.55773048  0.82353818  0.69981599  1
  Zr  Zr444  1  0.37193587  0.82294283  0.79953632  1
  Zr  Zr445  1  0.71533180  0.57390537  0.74957780  1
  Zr  Zr446  1  0.71384325  0.07355232  0.74992177  1
  Zr  Zr447  1  0.37321764  0.32439972  0.79970922  1
  Zr  Zr448  1  0.21542695  0.57419380  0.74984955  1
  Zr  Zr449  1  0.21357715  0.07338209  0.75001385  1
  Zr  Zr450  1  0.87148909  0.82436825  0.79936588  1
  Zr  Zr451  1  0.87133327  0.32245789  0.80012129  1
  Zr  Zr452  1  0.68937604  0.32657545  0.90176888  1
  Zr  Zr453  1  0.02418451  0.07508650  0.85203816  1
  Zr  Zr454  1  0.02891208  0.57122357  0.84990831  1
  Zr  Zr455  1  0.68924563  0.82630329  0.89911535  1
  Zr  Zr456  1  0.52707523  0.07380102  0.84968620  1
  Zr  Zr457  1  0.53063737  0.57293283  0.84993745  1
  Zr  Zr458  1  0.18836173  0.32517030  0.89957737  1
  Zr  Zr459  1  0.18210283  0.82060582  0.89857000  1
  Zr  Zr460  1  0.35142111  0.56771374  0.95113493  1
  Zr  Zr461  1  0.33611801  0.06526125  0.95224182  1
  Zr  Zr462  1  0.84746380  0.59002830  0.95258070  1
  Zr  Zr463  1  0.82974117  0.07607136  0.95608866  1
  O  O464  1  0.54893266  0.93116844  0.08615789  1
  O  O465  1  0.41510210  0.33102192  0.06277476  1
  O  O466  1  0.32333409  0.12458589  0.03373164  1
  O  O467  1  0.25613803  0.63612322  0.02566098  1
  O  O468  1  0.47391204  0.77131569  0.07303812  1
  O  O469  1  0.61694271  0.37820215  0.09943142  1
  O  O470  1  0.78714514  0.57890613  0.10197367  1
  O  O471  1  0.25605775  0.28695191  0.02229114  1
  O  O472  1  0.45883942  0.16632316  0.07626674  1
  O  O473  1  0.66472715  0.07040518  0.07937005  1
  O  O474  1  0.13499887  0.92954424  0.00190016  1
  O  O475  1  0.54302790  0.53776821  0.09423335  1
  O  O476  1  0.23208478  0.80205840  0.04499175  1
  O  O477  1  0.48232518  0.62877354  0.05145489  1
  O  O478  1  0.47963809  0.45955400  0.03134312  1
  O  O479  1  0.26094920  0.97852477  0.05960304  1
  O  O480  1  0.29367382  0.51360156  0.06665629  1
  O  O481  1  0.46055469  0.91035666  0.02220734  1
  O  O482  1  0.71307318  0.25011215  0.07003836  1
  O  O483  1  0.03363881  0.20200484  0.02969427  1
  O  O484  1  0.97885534  0.68232555  0.02191463  1
  O  O485  1  0.74740685  0.77406388  0.07896278  1
  O  O486  1  0.73212019  0.46470248  0.06083845  1
  O  O487  1  0.99569414  0.00600058  0.04118559  1
  O  O488  1  0.25224736  0.67763595  0.07876655  1
  O  O489  1  0.46378906  0.74650530  0.01738517  1
  O  O490  1  0.53113367  0.23808722  0.02698787  1
  O  O491  1  0.21377776  0.21559265  0.07220862  1
  O  O492  1  0.94862189  0.52329478  0.03942305  1
  O  O493  1  0.78544767  0.93572863  0.06642412  1
  O  O494  1  0.74361008  0.64527789  0.05043131  1
  O  O495  1  0.97055070  0.82028876  0.05227416  1
  O  O496  1  0.78045977  0.17303240  0.02591545  1
  O  O497  1  0.95272317  0.29383369  0.08109765  1
  O  O498  1  0.59559312  0.05390685  0.02674504  1
  O  O499  1  0.16052946  0.38867877  0.07241102  1
  O  O500  1  0.70031400  0.54779520  0.01194067  1
  O  O501  1  0.04968696  0.91492144  0.09270619  1
  O  O502  1  0.97338623  0.68304601  0.07781606  1
  O  O503  1  0.73857566  0.77892781  0.02376093  1
  O  O504  1  0.88854552  0.33414527  0.02999441  1
  O  O505  1  0.90921085  0.13679818  0.06966325  1
  O  O506  1  0.04982224  0.52220262  0.09055381  1
  O  O507  1  0.28695742  0.86809713  0.10355906  1
  O  O508  1  0.11444090  0.06763182  0.09647578  1
  O  O509  1  0.87048892  0.02395659  0.11398430  1
  O  O510  1  0.23242107  0.43024838  0.18664237  1
  O  O511  1  0.09307425  0.82629484  0.16616330  1
  O  O512  1  0.00598472  0.62426483  0.13483146  1
  O  O513  1  0.93293262  0.18130103  0.12412368  1
  O  O514  1  0.16810984  0.27184139  0.17732650  1
  O  O515  1  0.30723924  0.87716297  0.19811697  1
  O  O516  1  0.47798262  0.07823924  0.20259152  1
  O  O517  1  0.95822784  0.78721213  0.12201819  1
  O  O518  1  0.13881444  0.66480934  0.17844404  1
  O  O519  1  0.76091459  0.88801136  0.12234439  1
  O  O520  1  0.34098813  0.56661959  0.17789831  1
  O  O521  1  0.85825776  0.41914328  0.10812976  1
  O  O522  1  0.23661834  0.03861255  0.19357764  1
  O  O523  1  0.93484029  0.31613056  0.14839154  1
  O  O524  1  0.17059044  0.13748005  0.15052068  1
  O  O525  1  0.17710527  0.96410629  0.13918043  1
  O  O526  1  0.93004285  0.48602048  0.16059126  1
  O  O527  1  0.97845266  0.02085404  0.16736357  1
  O  O528  1  0.12596538  0.42772516  0.13257885  1
  O  O529  1  0.39087912  0.73889290  0.17189106  1
  O  O530  1  0.70726983  0.71688743  0.12849402  1
  O  O531  1  0.66169638  0.18557185  0.12020602  1
  O  O532  1  0.44099999  0.27145027  0.17844494  1
  O  O533  1  0.43028914  0.96668328  0.16027782  1
  O  O534  1  0.67125579  0.48934299  0.14026095  1
  O  O535  1  0.94185274  0.18106094  0.17918647  1
  O  O536  1  0.15908997  0.27163163  0.12130516  1
  O  O537  1  0.20650687  0.73416620  0.12824964  1
  O  O538  1  0.89064540  0.71665278  0.17174727  1
  O  O539  1  0.62669678  0.02231890  0.13259129  1
  O  O540  1  0.47402603  0.43212313  0.16704779  1
  O  O541  1  0.43260517  0.13782167  0.14870331  1
  O  O542  1  0.66364810  0.31661425  0.15231981  1
  O  O543  1  0.45982981  0.66767963  0.12191910  1
  O  O544  1  0.63432392  0.78983076  0.17886082  1
  O  O545  1  0.25942598  0.56044612  0.12330023  1
  O  O546  1  0.84388232  0.88832265  0.17656627  1
  O  O547  1  0.36063855  0.03711300  0.10705236  1
  O  O548  1  0.73720180  0.41487233  0.19301362  1
  O  O549  1  0.66830425  0.17909018  0.17622559  1
  O  O550  1  0.43325469  0.26909884  0.12196909  1
  O  O551  1  0.51098320  0.82789913  0.13270252  1
  O  O552  1  0.58927155  0.62759683  0.16641968  1
  O  O553  1  0.73415140  0.02246681  0.18692138  1
  O  O554  1  0.36515451  0.42380058  0.11261922  1
  O  O555  1  0.97895670  0.37573157  0.20243687  1
  O  O556  1  0.80634298  0.57675136  0.19744670  1
  O  O557  1  0.55224905  0.52248275  0.21303172  1
  O  O558  1  0.91908880  0.92981406  0.28629587  1
  O  O559  1  0.77658733  0.32731262  0.26612251  1
  O  O560  1  0.69468970  0.12589036  0.23385294  1
  O  O561  1  0.61732875  0.68012420  0.22309179  1
  O  O562  1  0.85104870  0.77237510  0.27696635  1
  O  O563  1  0.99274222  0.37613914  0.29753658  1
  O  O564  1  0.16386229  0.57693254  0.30187690  1
  O  O565  1  0.65171968  0.28730410  0.22119139  1
  O  O566  1  0.82731463  0.16560585  0.27837374  1
  O  O567  1  0.44219537  0.38874731  0.22357916  1
  O  O568  1  0.02749023  0.06602643  0.27762596  1
  O  O569  1  0.54785635  0.91642967  0.20745304  1
  O  O570  1  0.92230701  0.53796819  0.29286740  1
  O  O571  1  0.61878854  0.81624952  0.24807654  1
  O  O572  1  0.85209995  0.63766648  0.25132871  1
  O  O573  1  0.85779697  0.46620154  0.23970214  1
  O  O574  1  0.61361188  0.98765068  0.26044983  1
  O  O575  1  0.66021300  0.52078507  0.26702558  1
  O  O576  1  0.80986578  0.93184166  0.23274043  1
  O  O577  1  0.07940560  0.23755824  0.27214210  1
  O  O578  1  0.39580006  0.21699469  0.22877182  1
  O  O579  1  0.34582468  0.68235051  0.22128116  1
  O  O580  1  0.12492836  0.77167353  0.27871025  1
  O  O581  1  0.11313368  0.46642059  0.26003408  1
  O  O582  1  0.35900464  0.98770944  0.23981033  1
  O  O583  1  0.62441868  0.68199666  0.27864888  1
  O  O584  1  0.84496718  0.77187562  0.22126454  1
  O  O585  1  0.89547130  0.23668985  0.22857737  1
  O  O586  1  0.57992358  0.21585603  0.27251544  1
  O  O587  1  0.30990216  0.52198041  0.23269034  1
  O  O588  1  0.16158230  0.93219607  0.26719890  1
  O  O589  1  0.11540045  0.63810183  0.24870436  1
  O  O590  1  0.35077713  0.81574188  0.25211051  1
  O  O591  1  0.14960209  0.16523856  0.22201487  1
  O  O592  1  0.32803066  0.28631609  0.27902119  1
  O  O593  1  0.94498258  0.06505416  0.22273197  1
  O  O594  1  0.52798981  0.38548309  0.27748896  1
  O  O595  1  0.04674965  0.53797640  0.20736179  1
  O  O596  1  0.42358266  0.91618171  0.29305821  1
  O  O597  1  0.35196056  0.67964163  0.27682342  1
  O  O598  1  0.11921632  0.77210374  0.22285525  1
  O  O599  1  0.19497544  0.32743036  0.23439616  1
  O  O600  1  0.27788698  0.12635257  0.26692175  1
  O  O601  1  0.41850109  0.52142953  0.28672353  1
  O  O602  1  0.05212857  0.92936426  0.21360177  1
  O  O603  1  0.66383994  0.87658882  0.30237376  1
  O  O604  1  0.49426948  0.07799732  0.29831522  1
  O  O605  1  0.23729301  0.02228569  0.31341909  1
  O  O606  1  0.60654767  0.42272222  0.38728095  1
  O  O607  1  0.46401504  0.82751850  0.36715139  1
  O  O608  1  0.38047976  0.62725008  0.33350626  1
  O  O609  1  0.30933973  0.17814047  0.32495423  1
  O  O610  1  0.54578085  0.26697766  0.37951829  1
  O  O611  1  0.68172149  0.87243900  0.39962197  1
  O  O612  1  0.86417454  0.07073032  0.40254182  1
  O  O613  1  0.33587511  0.78919791  0.32124250  1
  O  O614  1  0.51194844  0.66615732  0.37749488  1
  O  O615  1  0.12721598  0.88784480  0.32308372  1
  O  O616  1  0.70852628  0.56272455  0.37744348  1
  O  O617  1  0.23245320  0.41380979  0.30660370  1
  O  O618  1  0.61168531  0.03637295  0.39298077  1
  O  O619  1  0.30819939  0.31341889  0.34977604  1
  O  O620  1  0.54196533  0.13584383  0.35261735  1
  O  O621  1  0.54332930  0.96569648  0.33994395  1
  O  O622  1  0.29988869  0.48586005  0.35938512  1
  O  O623  1  0.34633400  0.01996188  0.36713664  1
  O  O624  1  0.49698360  0.43050493  0.33259858  1
  O  O625  1  0.76284207  0.73687420  0.37200849  1
  O  O626  1  0.07934493  0.71654248  0.32832764  1
  O  O627  1  0.03418801  0.18166904  0.32120304  1
  O  O628  1  0.81785983  0.27475905  0.37850939  1
  O  O629  1  0.79515190  0.96450746  0.36103208  1
  O  O630  1  0.04160271  0.48766948  0.33918414  1
  O  O631  1  0.31853793  0.18363945  0.38198421  1
  O  O632  1  0.53519194  0.26990802  0.32291015  1
  O  O633  1  0.58028970  0.73863312  0.32814691  1
  O  O634  1  0.26384477  0.71834576  0.37155797  1
  O  O635  1  0.99378601  0.02166238  0.33253389  1
  O  O636  1  0.84599011  0.43087256  0.36665607  1
  O  O637  1  0.80389343  0.13951453  0.35018502  1
  O  O638  1  0.04102055  0.31780516  0.35148126  1
  O  O639  1  0.83181431  0.66536479  0.32156073  1
  O  O640  1  0.00995425  0.78802893  0.37790627  1
  O  O641  1  0.62882628  0.56553927  0.32210607  1
  O  O642  1  0.20983942  0.88691354  0.37716897  1
  O  O643  1  0.73504539  0.03869821  0.30643705  1
  O  O644  1  0.11156654  0.41779439  0.39105692  1
  O  O645  1  0.04455911  0.18494716  0.37630815  1
  O  O646  1  0.80804244  0.27268650  0.32267790  1
  O  O647  1  0.87759860  0.82712909  0.33382175  1
  O  O648  1  0.96059799  0.62514184  0.36570600  1
  O  O649  1  0.10490554  0.02521739  0.38590015  1
  O  O650  1  0.73851655  0.42971886  0.31320276  1
  O  O651  1  0.35552944  0.38050575  0.40370645  1
  O  O652  1  0.18322163  0.57974485  0.39478981  1
  O  O653  1  0.92210050  0.52314720  0.41012666  1
  O  O654  1  0.13411036  0.34306602  0.46528416  1
  O  O655  1  0.08023670  0.13755148  0.43184694  1
  O  O656  1  0.98553874  0.68542864  0.42173482  1
  O  O657  1  0.21878448  0.77925855  0.47637318  1
  O  O658  1  0.02828865  0.29066131  0.42128833  1
  O  O659  1  0.19588404  0.16639789  0.47876197  1
  O  O660  1  0.81219657  0.38953163  0.42611319  1
  O  O661  1  0.38985791  0.06421355  0.47551057  1
  O  O662  1  0.92499472  0.91482764  0.40663727  1
  O  O663  1  0.25215915  0.54606279  0.48450297  1
  O  O664  1  0.98307405  0.82061181  0.44891415  1
  O  O665  1  0.21525353  0.64827051  0.44861044  1
  O  O666  1  0.23367831  0.46859937  0.43872502  1
  O  O667  1  0.97976953  0.00841561  0.45753316  1
  O  O668  1  0.00853202  0.50761163  0.46549041  1
  O  O669  1  0.18205388  0.93459994  0.43317400  1
  O  O670  1  0.48502501  0.22866948  0.48180081  1
  O  O671  1  0.77322500  0.21835322  0.42773032  1
  O  O672  1  0.71424144  0.67823078  0.42105513  1
  O  O673  1  0.49279936  0.75157660  0.48064012  1
  O  O674  1  0.48391162  0.45966490  0.46704122  1
  O  O675  1  0.72125009  0.98722620  0.44058247  1
  O  O676  1  0.97849199  0.67895869  0.47720688  1
  O  O677  1  0.21347939  0.77518171  0.42120923  1
  O  O678  1  0.27964353  0.24480739  0.43303746  1
  O  O679  1  0.95762531  0.21556771  0.47262898  1
  O  O680  1  0.67375374  0.51499399  0.43188584  1
  O  O681  1  0.51152038  0.91995046  0.47082165  1
  O  O682  1  0.47168066  0.62705825  0.44987275  1
  O  O683  1  0.71201089  0.80320145  0.45625879  1
  O  O684  1  0.53875727  0.16113919  0.42836769  1
  O  O685  1  0.74024541  0.30023158  0.47674382  1
  O  O686  1  0.31610391  0.06424068  0.42117984  1
  O  O687  1  0.42394412  0.53903433  0.40470069  1
  O  O688  1  0.78649832  0.92631269  0.50010331  1
  O  O689  1  0.70377636  0.63171607  0.47277346  1
  O  O690  1  0.48709781  0.76521813  0.42504986  1
  O  O691  1  0.56042689  0.32524196  0.43824342  1
  O  O692  1  0.71023927  0.14012131  0.47392798  1
  O  O693  1  0.42122397  0.92734361  0.41347506  1
  O  O694  1  0.90065678  0.36950125  0.58604539  1
  O  O695  1  0.03384539  0.97008905  0.56266508  1
  O  O696  1  0.12567247  0.17666142  0.53375178  1
  O  O697  1  0.19227982  0.66072583  0.52527607  1
  O  O698  1  0.97480673  0.52953465  0.57378335  1
  O  O699  1  0.83245593  0.92218226  0.59936514  1
  O  O700  1  0.66192108  0.72134459  0.60178643  1
  O  O701  1  0.19318968  0.01423835  0.52226295  1
  O  O702  1  0.99022759  0.13479333  0.57630942  1
  O  O703  1  0.78408931  0.23024068  0.57912521  1
  O  O704  1  0.30932453  0.37334593  0.50239594  1
  O  O705  1  0.90631941  0.76279508  0.59378299  1
  O  O706  1  0.21625541  0.49785589  0.54503964  1
  O  O707  1  0.96716999  0.67145323  0.55129606  1
  O  O708  1  0.96974289  0.84165792  0.53128118  1
  O  O709  1  0.18894199  0.32153523  0.55959733  1
  O  O710  1  0.15685522  0.78640965  0.56611983  1
  O  O711  1  0.98918477  0.38613839  0.52229876  1
  O  O712  1  0.73607994  0.05068565  0.56981668  1
  O  O713  1  0.41459551  0.09976883  0.52978831  1
  O  O714  1  0.46918527  0.61691332  0.52147838  1
  O  O715  1  0.70195660  0.52640905  0.57868019  1
  O  O716  1  0.71732670  0.83615021  0.56060568  1
  O  O717  1  0.45308267  0.29514584  0.54096952  1
  O  O718  1  0.19665107  0.62259094  0.57876946  1
  O  O719  1  0.98105429  0.54916154  0.51876483  1
  O  O720  1  0.91841116  0.06343804  0.52686377  1
  O  O721  1  0.23506753  0.08558044  0.57219747  1
  O  O722  1  0.50104943  0.77619647  0.53926820  1
  O  O723  1  0.66405472  0.36497623  0.56624324  1
  O  O724  1  0.70478456  0.65463817  0.55018183  1
  O  O725  1  0.47696146  0.48009321  0.55177596  1
  O  O726  1  0.66748603  0.12745775  0.52558299  1
  O  O727  1  0.49613754  0.00696447  0.58099641  1
  O  O728  1  0.85300145  0.24431370  0.52662577  1
  O  O729  1  0.28862121  0.91212494  0.57226237  1
  O  O730  1  0.75120300  0.75172757  0.51202559  1
  O  O731  1  0.39964594  0.38568260  0.59253437  1
  O  O732  1  0.47544623  0.61745638  0.57746114  1
  O  O733  1  0.70988582  0.52075353  0.52356161  1
  O  O734  1  0.55725654  0.96707991  0.52973165  1
  O  O735  1  0.54034175  0.16422263  0.56956814  1
  O  O736  1  0.39964390  0.77789689  0.59013679  1
  O  O737  1  0.16279014  0.43236495  0.60357059  1
  O  O738  1  0.33515619  0.23298735  0.59656681  1
  O  O739  1  0.57903751  0.27669832  0.61392516  1
  O  O740  1  0.21790330  0.86996185  0.68640487  1
  O  O741  1  0.35724252  0.47384614  0.66594766  1
  O  O742  1  0.44365043  0.67602027  0.63457528  1
  O  O743  1  0.51686817  0.11916283  0.62396671  1
  O  O744  1  0.28182175  0.02822108  0.67709865  1
  O  O745  1  0.14287486  0.42279514  0.69794903  1
  O  O746  1  0.97193124  0.22176792  0.70256211  1
  O  O747  1  0.49150371  0.51332294  0.62175566  1
  O  O748  1  0.31036159  0.63530861  0.67819547  1
  O  O749  1  0.68896694  0.41272447  0.62207665  1
  O  O750  1  0.10951707  0.73346287  0.67747777  1
  O  O751  1  0.59103413  0.88138918  0.60754957  1
  O  O752  1  0.21284005  0.26155002  0.69333015  1
  O  O753  1  0.51521494  0.98453253  0.64817211  1
  O  O754  1  0.27972760  0.16309617  0.65058449  1
  O  O755  1  0.27289675  0.33656898  0.63914588  1
  O  O756  1  0.52053157  0.81438252  0.66027646  1
  O  O757  1  0.47130975  0.27940747  0.66721841  1
  O  O758  1  0.32426124  0.87263938  0.63220763  1
  O  O759  1  0.05883370  0.56150267  0.67176489  1
  O  O760  1  0.74234503  0.58348385  0.62832915  1
  O  O761  1  0.78786692  0.11486949  0.62008068  1
  O  O762  1  0.00847618  0.02855482  0.67830915  1
  O  O763  1  0.01926576  0.33347768  0.66014695  1
  O  O764  1  0.77864052  0.81068312  0.64003242  1
  O  O765  1  0.50800418  0.11926959  0.67910697  1
  O  O766  1  0.29076426  0.02912831  0.62117149  1
  O  O767  1  0.24301478  0.56636875  0.62819930  1
  O  O768  1  0.55893341  0.58353137  0.67154728  1
  O  O769  1  0.82300316  0.27804593  0.63235708  1
  O  O770  1  0.97612717  0.86777862  0.66681694  1
  O  O771  1  0.01706621  0.16228989  0.64866249  1
  O  O772  1  0.78589585  0.98354515  0.65215538  1
  O  O773  1  0.98894430  0.63310536  0.62171002  1
  O  O774  1  0.81585505  0.51044134  0.67869487  1
  O  O775  1  0.19009609  0.74006729  0.62282756  1
  O  O776  1  0.60599771  0.41204072  0.67643409  1
  O  O777  1  0.08891941  0.26366677  0.60713806  1
  O  O778  1  0.71262974  0.88504097  0.69258756  1
  O  O779  1  0.78155637  0.12085666  0.67617183  1
  O  O780  1  0.01708955  0.03119287  0.62192798  1
  O  O781  1  0.93894160  0.47239017  0.63266207  1
  O  O782  1  0.86090233  0.67290816  0.66621468  1
  O  O783  1  0.71578956  0.27757783  0.68674653  1
  O  O784  1  0.08462587  0.87640015  0.61229309  1
  O  O785  1  0.47129869  0.92425347  0.70226711  1
  O  O786  1  0.64369747  0.72334941  0.69726801  1
  O  O787  1  0.89805341  0.77724911  0.71268863  1
  O  O788  1  0.53146420  0.37001976  0.78612394  1
  O  O789  1  0.67416049  0.97250692  0.76595481  1
  O  O790  1  0.75578446  0.17397954  0.73373901  1
  O  O791  1  0.83307694  0.61992082  0.72293692  1
  O  O792  1  0.59906872  0.52731502  0.77666783  1
  O  O793  1  0.45838182  0.92337686  0.79727139  1
  O  O794  1  0.28621637  0.72280316  0.80221585  1
  O  O795  1  0.79808727  0.01247192  0.72100205  1
  O  O796  1  0.62221013  0.13416184  0.77808661  1
  O  O797  1  0.00786625  0.91099803  0.72333152  1
  O  O798  1  0.42293969  0.23399985  0.77741039  1
  O  O799  1  0.90181745  0.38397597  0.70706960  1
  O  O800  1  0.52772592  0.76177409  0.79231607  1
  O  O801  1  0.83176715  0.48402650  0.74805039  1
  O  O802  1  0.59878910  0.66275896  0.75125974  1
  O  O803  1  0.59314480  0.83397208  0.73940942  1
  O  O804  1  0.83666019  0.31255410  0.76029228  1
  O  O805  1  0.79007752  0.77949052  0.76673636  1
  O  O806  1  0.63997948  0.36846539  0.73256306  1
  O  O807  1  0.37039343  0.06254028  0.77213807  1
  O  O808  1  0.05380517  0.08289444  0.72871502  1
  O  O809  1  0.10475822  0.61786426  0.72109342  1
  O  O810  1  0.32472730  0.52817821  0.77865932  1
  O  O811  1  0.33807617  0.83295174  0.75984063  1
  O  O812  1  0.09151527  0.31214951  0.73963008  1
  O  O813  1  0.82560218  0.61817509  0.77847347  1
  O  O814  1  0.60531242  0.52826092  0.72102771  1
  O  O815  1  0.55425006  0.06339213  0.72856408  1
  O  O816  1  0.86997191  0.08414790  0.77244951  1
  O  O817  1  0.14111106  0.77794951  0.73230537  1
  O  O818  1  0.28914369  0.36797992  0.76701782  1
  O  O819  1  0.33558182  0.66129570  0.74856897  1
  O  O820  1  0.09982762  0.48396363  0.75194227  1
  O  O821  1  0.29917657  0.13482065  0.72169983  1
  O  O822  1  0.12149321  0.01362456  0.77881914  1
  O  O823  1  0.50526465  0.23539788  0.72270157  1
  O  O824  1  0.92280856  0.91474706  0.77748650  1
  O  O825  1  0.40300999  0.76176462  0.70667651  1
  O  O826  1  0.02637449  0.38349951  0.79258599  1
  O  O827  1  0.09794127  0.62028836  0.77659311  1
  O  O828  1  0.33110193  0.52770128  0.72266990  1
  O  O829  1  0.25577469  0.97236567  0.73433787  1
  O  O830  1  0.17252293  0.17359200  0.76671793  1
  O  O831  1  0.03199444  0.77870965  0.78639933  1
  O  O832  1  0.39735139  0.37049408  0.71330015  1
  O  O833  1  0.78593093  0.42316576  0.80232365  1
  O  O834  1  0.95619845  0.22191779  0.79820728  1
  O  O835  1  0.21315246  0.27728962  0.81304145  1
  O  O836  1  0.84444501  0.87700301  0.88732887  1
  O  O837  1  0.98628197  0.47228447  0.86703614  1
  O  O838  1  0.07030712  0.67236235  0.83334076  1
  O  O839  1  0.14053117  0.12145735  0.82474241  1
  O  O840  1  0.90407451  0.03262468  0.87941256  1
  O  O841  1  0.76811557  0.42788076  0.89963077  1
  O  O842  1  0.58613437  0.22925231  0.90237614  1
  O  O843  1  0.11321242  0.51030352  0.82095959  1
  O  O844  1  0.93640617  0.63284430  0.87712122  1
  O  O845  1  0.32293575  0.41138844  0.82316612  1
  O  O846  1  0.74202075  0.73717840  0.87728326  1
  O  O847  1  0.21811160  0.88624276  0.80627544  1
  O  O848  1  0.83906762  0.26373512  0.89272873  1
  O  O849  1  0.14306455  0.98663936  0.84993329  1
  O  O850  1  0.90850547  0.16407986  0.85246673  1
  O  O851  1  0.90726845  0.33417030  0.83974223  1
  O  O852  1  0.15287388  0.81278490  0.85888303  1
  O  O853  1  0.10437213  0.28012721  0.86684495  1
  O  O854  1  0.95422555  0.86896815  0.83227049  1
  O  O855  1  0.68716812  0.56294660  0.87184444  1
  O  O856  1  0.36980231  0.58306063  0.82845506  1
  O  O857  1  0.41565634  0.11859181  0.82114526  1
  O  O858  1  0.63185435  0.02541019  0.87843141  1
  O  O859  1  0.65584310  0.33528508  0.86082739  1
  O  O860  1  0.40987330  0.81255596  0.83898147  1
  O  O861  1  0.13115750  0.11635219  0.88187252  1
  O  O862  1  0.91478655  0.02971798  0.82278536  1
  O  O863  1  0.87004924  0.56132177  0.82801080  1
  O  O864  1  0.18593120  0.58255318  0.87160627  1
  O  O865  1  0.45660669  0.27831351  0.83243574  1
  O  O866  1  0.60516182  0.86948083  0.86658931  1
  O  O867  1  0.64580480  0.16058039  0.84991931  1
  O  O868  1  0.40940074  0.98205519  0.85114782  1
  O  O869  1  0.61666408  0.63435187  0.82104035  1
  O  O870  1  0.43974325  0.51272820  0.87790157  1
  O  O871  1  0.82168206  0.73433827  0.82194216  1
  O  O872  1  0.24012719  0.41381596  0.87707955  1
  O  O873  1  0.71534019  0.26075861  0.80617465  1
  O  O874  1  0.33894630  0.88305591  0.89091016  1
  O  O875  1  0.40522821  0.11521678  0.87616686  1
  O  O876  1  0.64204325  0.02726678  0.82260579  1
  O  O877  1  0.57225470  0.47249103  0.83378417  1
  O  O878  1  0.49099108  0.67504955  0.86499600  1
  O  O879  1  0.34567369  0.27538422  0.88569392  1
  O  O880  1  0.71186587  0.87013023  0.81302391  1
  O  O881  1  0.09576981  0.91824537  0.90407321  1
  O  O882  1  0.27229716  0.72057257  0.89657581  1
  O  O883  1  0.52780026  0.77673904  0.90985643  1
  O  O884  1  0.31659579  0.95805093  0.96479940  1
  O  O885  1  0.36886088  0.16310560  0.93164800  1
  O  O886  1  0.46181197  0.61677982  0.92173271  1
  O  O887  1  0.23096438  0.51995425  0.97619345  1
  O  O888  1  0.42264211  0.00985129  0.92119827  1
  O  O889  1  0.25333158  0.13428556  0.97862185  1
  O  O890  1  0.63885611  0.91043866  0.92603857  1
  O  O891  1  0.06191390  0.23755054  0.97518911  1
  O  O892  1  0.52557081  0.38510823  0.90638933  1
  O  O893  1  0.18818801  0.74980337  0.98663949  1
  O  O894  1  0.46601998  0.47980249  0.94835651  1
  O  O895  1  0.23640775  0.65380029  0.94910646  1
  O  O896  1  0.22185921  0.82593134  0.93790631  1
  O  O897  1  0.47052930  0.29222734  0.95713814  1
  O  O898  1  0.44986819  0.78974762  0.96464527  1
  O  O899  1  0.26792429  0.36579333  0.93294881  1
  O  O900  1  0.96279629  0.07455875  0.98230817  1
  O  O901  1  0.67690133  0.08198624  0.92765724  1
  O  O902  1  0.73570210  0.62153109  0.92088411  1
  O  O903  1  0.95584369  0.54692280  0.98045336  1
  O  O904  1  0.96877411  0.83894890  0.96640996  1
  O  O905  1  0.72911068  0.31307473  0.94031535  1
  O  O906  1  0.47380284  0.61784019  0.97722689  1
  O  O907  1  0.23494794  0.52576970  0.92119599  1
  O  O908  1  0.17096859  0.05462904  0.93279726  1
  O  O909  1  0.49216303  0.08580129  0.97242570  1
  O  O910  1  0.77688307  0.78459739  0.93177533  1
  O  O911  1  0.93700205  0.38000042  0.97066100  1
  O  O912  1  0.97867243  0.67180399  0.94952130  1
  O  O913  1  0.73620747  0.49693812  0.95585228  1
  O  O914  1  0.91069059  0.13929754  0.92832647  1
  O  O915  1  0.71016812  0.99991209  0.97655187  1
  O  O916  1  0.13385606  0.23608215  0.92090126  1
  O  O917  1  0.02695309  0.75987887  0.90375885  1
  O  O918  1  0.66172395  0.37472366  0.99999401  1
  O  O919  1  0.74820470  0.66792458  0.97283552  1
  O  O920  1  0.96225072  0.53419409  0.92477539  1
  O  O921  1  0.89288649  0.97550727  0.93871625  1
  O  O922  1  0.73897170  0.16045649  0.97410287  1
  O  O923  1  0.02870982  0.37263816  0.91330516  1
