# generated using pymatgen
data_Li62La28Zr17O107
_symmetry_space_group_name_H-M   'P 1'
_cell_length_a   11.27162600
_cell_length_b   18.66058700
_cell_length_c   48.58270816
_cell_angle_alpha   90.00000000
_cell_angle_beta   90.00000000
_cell_angle_gamma   89.99896220
_symmetry_Int_Tables_number   1
_chemical_formula_structural   Li62La28Zr17O107
_chemical_formula_sum   'Li248 La112 Zr68 O428'
_cell_volume   10218.65157802
_cell_formula_units_Z   4
loop_
 _symmetry_equiv_pos_site_id
 _symmetry_equiv_pos_as_xyz
  1  'x, y, z'
loop_
 _atom_site_type_symbol
 _atom_site_label
 _atom_site_symmetry_multiplicity
 _atom_site_fract_x
 _atom_site_fract_y
 _atom_site_fract_z
 _atom_site_occupancy
  Li  Li0  1  0.88831727  0.63988971  0.09199938  1
  Li  Li1  1  0.60390697  0.15246293  0.08240002  1
  Li  Li2  1  0.70238629  0.74043805  0.10010217  1
  Li  Li3  1  0.80043556  0.06936080  0.07711557  1
  Li  Li4  1  0.35657148  0.85421842  0.00112216  1
  Li  Li5  1  0.49523320  0.40953855  0.06864147  1
  Li  Li6  1  0.40136113  0.80431400  0.04817575  1
  Li  Li7  1  0.46469285  0.47822467  0.02203002  1
  Li  Li8  1  0.69119457  0.45886573  0.02653419  1
  Li  Li9  1  0.16475135  0.88820496  0.02105904  1
  Li  Li10  1  0.37139644  0.53387863  0.07823176  1
  Li  Li11  1  0.10357312  0.27221203  0.10016376  1
  Li  Li12  1  0.67898018  0.10107328  0.03597686  1
  Li  Li13  1  0.20316225  0.19203722  0.01638084  1
  Li  Li14  1  0.59009812  0.02808017  0.10652490  1
  Li  Li15  1  0.88705179  0.77204628  0.07799729  1
  Li  Li16  1  0.86808020  0.50952398  0.05690836  1
  Li  Li17  1  0.98026994  0.81565321  0.02714325  1
  Li  Li18  1  0.38828466  0.66382749  0.08542967  1
  Li  Li19  1  0.06663652  0.14381277  0.08237397  1
  Li  Li20  1  0.19719188  0.56710319  0.10160278  1
  Li  Li21  1  0.27692344  0.22812232  0.07014794  1
  Li  Li22  1  0.88844587  0.46427377  0.00915842  1
  Li  Li23  1  0.99264556  0.90216137  0.06848181  1
  Li  Li24  1  0.99871580  0.52442915  0.09144893  1
  Li  Li25  1  0.49314903  0.27691093  0.08653769  1
  Li  Li26  1  0.50571381  0.77254166  0.08645110  1
  Li  Li27  1  0.01122697  0.02328138  0.08930899  1
  Li  Li28  1  0.58298717  0.15136841  0.20240879  1
  Li  Li29  1  0.28186610  0.65354543  0.18920603  1
  Li  Li30  1  0.40129413  0.23408951  0.20783455  1
  Li  Li31  1  0.46529052  0.57105581  0.18340203  1
  Li  Li32  1  0.01570144  0.40151101  0.11399348  1
  Li  Li33  1  0.17683437  0.89626781  0.17273424  1
  Li  Li34  1  0.06263394  0.31616850  0.15507513  1
  Li  Li35  1  0.13701090  0.98004939  0.12816324  1
  Li  Li36  1  0.35488016  0.95272329  0.13643498  1
  Li  Li37  1  0.84269286  0.35226531  0.14147071  1
  Li  Li38  1  0.09788991  0.02406320  0.17711046  1
  Li  Li39  1  0.77329533  0.77874637  0.21393338  1
  Li  Li40  1  0.34842685  0.60442602  0.13593347  1
  Li  Li41  1  0.84656106  0.70461171  0.13754989  1
  Li  Li42  1  0.28020774  0.52742989  0.21223206  1
  Li  Li43  1  0.59379222  0.27692822  0.17726629  1
  Li  Li44  1  0.56048040  0.98630352  0.15509867  1
  Li  Li45  1  0.62014477  0.32081869  0.12796097  1
  Li  Li46  1  0.08302354  0.14991987  0.20231818  1
  Li  Li47  1  0.77886264  0.65342262  0.18932262  1
  Li  Li48  1  0.89984906  0.06671051  0.20736957  1
  Li  Li49  1  0.96241833  0.73474082  0.18436494  1
  Li  Li50  1  0.52025875  0.89380902  0.11115626  1
  Li  Li51  1  0.67051884  0.40393115  0.17296895  1
  Li  Li52  1  0.68482172  0.02859936  0.19554127  1
  Li  Li53  1  0.18241408  0.77593103  0.19549727  1
  Li  Li54  1  0.18573753  0.27479684  0.19611188  1
  Li  Li55  1  0.67991345  0.52862591  0.19599027  1
  Li  Li56  1  0.27346727  0.64994519  0.31013104  1
  Li  Li57  1  0.97062349  0.15184542  0.29889520  1
  Li  Li58  1  0.08868448  0.73498535  0.31501361  1
  Li  Li59  1  0.15565298  0.06770513  0.29318992  1
  Li  Li60  1  0.70083290  0.90831183  0.21920552  1
  Li  Li61  1  0.85376248  0.39641337  0.27964962  1
  Li  Li62  1  0.74514279  0.81930680  0.26319963  1
  Li  Li63  1  0.80729138  0.48467069  0.23620599  1
  Li  Li64  1  0.02223640  0.45301754  0.25103911  1
  Li  Li65  1  0.53640198  0.84986651  0.24676846  1
  Li  Li66  1  0.77539607  0.52714143  0.28506396  1
  Li  Li67  1  0.47255746  0.27630051  0.31612596  1
  Li  Li68  1  0.02141706  0.09753920  0.25223571  1
  Li  Li69  1  0.52110451  0.20457554  0.25354082  1
  Li  Li70  1  0.95808695  0.02439789  0.32433135  1
  Li  Li71  1  0.27326908  0.77802907  0.28841535  1
  Li  Li72  1  0.24538582  0.48526372  0.26280574  1
  Li  Li73  1  0.30922998  0.81948053  0.23704284  1
  Li  Li74  1  0.76927404  0.65130216  0.31017789  1
  Li  Li75  1  0.46892873  0.14754097  0.29985565  1
  Li  Li76  1  0.58897314  0.57032518  0.31584513  1
  Li  Li77  1  0.66405414  0.23665965  0.29201996  1
  Li  Li78  1  0.19536614  0.40005493  0.21995991  1
  Li  Li79  1  0.35945670  0.90348421  0.27850481  1
  Li  Li80  1  0.37370288  0.52768021  0.30361856  1
  Li  Li81  1  0.87044960  0.27485436  0.30373879  1
  Li  Li82  1  0.87008768  0.77545240  0.30324830  1
  Li  Li83  1  0.36853118  0.02702132  0.30436292  1
  Li  Li84  1  0.95932307  0.15226390  0.41722218  1
  Li  Li85  1  0.63621723  0.66726822  0.41659889  1
  Li  Li86  1  0.75356182  0.22872185  0.42053254  1
  Li  Li87  1  0.85615064  0.56960232  0.39804202  1
  Li  Li88  1  0.37849757  0.40277524  0.32648187  1
  Li  Li89  1  0.54337766  0.91162271  0.38558160  1
  Li  Li90  1  0.42208710  0.32117545  0.36803733  1
  Li  Li91  1  0.49298009  0.99093085  0.34566501  1
  Li  Li92  1  0.72618473  0.95164700  0.35350962  1
  Li  Li93  1  0.20292238  0.34783586  0.36080143  1
  Li  Li94  1  0.44213022  0.03334210  0.40430455  1
  Li  Li95  1  0.16174370  0.77605093  0.42021196  1
  Li  Li96  1  0.70060397  0.59940247  0.36558014  1
  Li  Li97  1  0.20949858  0.70284705  0.36047815  1
  Li  Li98  1  0.67033065  0.53998974  0.41955213  1
  Li  Li99  1  0.94178135  0.28145949  0.39577855  1
  Li  Li100  1  0.92822496  0.97842455  0.37347237  1
  Li  Li101  1  0.99384672  0.31806860  0.34426377  1
  Li  Li102  1  0.50663695  0.16627203  0.41858225  1
  Li  Li103  1  0.15096952  0.64478811  0.40647139  1
  Li  Li104  1  0.25117784  0.07833753  0.42751492  1
  Li  Li105  1  0.35750647  0.73543489  0.40125855  1
  Li  Li106  1  0.88366176  0.89360107  0.32566707  1
  Li  Li107  1  0.03859342  0.40703396  0.38573468  1
  Li  Li108  1  0.05337679  0.02862853  0.41345191  1
  Li  Li109  1  0.55152621  0.78325890  0.41281605  1
  Li  Li110  1  0.54685961  0.28723590  0.41090432  1
  Li  Li111  1  0.04730568  0.52761871  0.41051898  1
  Li  Li112  1  0.05477170  0.89986059  0.43162418  1
  Li  Li113  1  0.22332615  0.34800492  0.49243462  1
  Li  Li114  1  0.11282892  0.80488572  0.47589230  1
  Li  Li115  1  0.17212333  0.50443814  0.44683245  1
  Li  Li116  1  0.29866335  0.47625734  0.48329730  1
  Li  Li117  1  0.90630079  0.84476483  0.47219246  1
  Li  Li118  1  0.41526482  0.09968328  0.45738219  1
  Li  Li119  1  0.89440759  0.19708506  0.45994493  1
  Li  Li120  1  0.53194407  0.43367053  0.49066756  1
  Li  Li121  1  0.70581427  0.80685220  0.47668198  1
  Li  Li122  1  0.55906332  0.41776349  0.43331613  1
  Li  Li123  1  0.80048634  0.88581786  0.52624214  1
  Li  Li124  1  0.36157521  0.93440208  0.59199958  1
  Li  Li125  1  0.64668638  0.42250607  0.58253238  1
  Li  Li126  1  0.54882199  0.83436430  0.60071076  1
  Li  Li127  1  0.44918677  0.50548947  0.57714767  1
  Li  Li128  1  0.89092183  0.72182789  0.50046041  1
  Li  Li129  1  0.75480798  0.16551784  0.56850712  1
  Li  Li130  1  0.84947057  0.77138206  0.54785306  1
  Li  Li131  1  0.78539255  0.09646350  0.52192883  1
  Li  Li132  1  0.55883009  0.11580073  0.52648374  1
  Li  Li133  1  0.08294092  0.68623891  0.52065181  1
  Li  Li134  1  0.87848882  0.04071968  0.57808161  1
  Li  Li135  1  0.14426378  0.30265627  0.59886355  1
  Li  Li136  1  0.57078930  0.47342935  0.53605702  1
  Li  Li137  1  0.04595858  0.38414400  0.51677827  1
  Li  Li138  1  0.66021756  0.54690817  0.60655854  1
  Li  Li139  1  0.36341375  0.80256115  0.57801469  1
  Li  Li140  1  0.38205314  0.06532097  0.55691463  1
  Li  Li141  1  0.26815053  0.75840614  0.52720519  1
  Li  Li142  1  0.86108034  0.91073171  0.58531797  1
  Li  Li143  1  0.18322739  0.43062870  0.58231755  1
  Li  Li144  1  0.05245408  0.00730644  0.60160554  1
  Li  Li145  1  0.97008476  0.34660286  0.57000546  1
  Li  Li146  1  0.36047079  0.11005181  0.50894464  1
  Li  Li147  1  0.25672431  0.67220666  0.56846858  1
  Li  Li148  1  0.25114774  0.05025610  0.59147756  1
  Li  Li149  1  0.75591891  0.29792882  0.58685361  1
  Li  Li150  1  0.74458137  0.80211147  0.58641377  1
  Li  Li151  1  0.23849063  0.55099854  0.58948869  1
  Li  Li152  1  0.66722840  0.42435688  0.70248747  1
  Li  Li153  1  0.96806857  0.92131551  0.68911405  1
  Li  Li154  1  0.85094038  0.34143275  0.70782711  1
  Li  Li155  1  0.78559397  0.00392560  0.68362937  1
  Li  Li156  1  0.23394477  0.17283244  0.61354659  1
  Li  Li157  1  0.07329235  0.67944551  0.67297185  1
  Li  Li158  1  0.18748867  0.25887776  0.65373975  1
  Li  Li159  1  0.11165922  0.59590708  0.62837733  1
  Li  Li160  1  0.89455282  0.62250169  0.63649797  1
  Li  Li161  1  0.40691524  0.22223484  0.64139993  1
  Li  Li162  1  0.15228992  0.55082558  0.67705123  1
  Li  Li163  1  0.47704504  0.79596026  0.71423653  1
  Li  Li164  1  0.90042910  0.97067600  0.63574318  1
  Li  Li165  1  0.40233277  0.87017853  0.63743865  1
  Li  Li166  1  0.97035855  0.04799886  0.71232510  1
  Li  Li167  1  0.65866967  0.29903360  0.67825744  1
  Li  Li168  1  0.68932939  0.58856213  0.65505989  1
  Li  Li169  1  0.62913347  0.25375424  0.62881801  1
  Li  Li170  1  0.16757921  0.42533498  0.70223911  1
  Li  Li171  1  0.47082597  0.92132660  0.68939255  1
  Li  Li172  1  0.35072395  0.50843039  0.70739824  1
  Li  Li173  1  0.28810387  0.84013227  0.68433325  1
  Li  Li174  1  0.72954553  0.68057944  0.61117920  1
  Li  Li175  1  0.57954302  0.17149940  0.67294285  1
  Li  Li176  1  0.56497836  0.54637723  0.69555201  1
  Li  Li177  1  0.06730284  0.79941741  0.69572381  1
  Li  Li178  1  0.06515685  0.30013360  0.69592587  1
  Li  Li179  1  0.57027284  0.04642804  0.69591990  1
  Li  Li180  1  0.97682818  0.92464615  0.81015594  1
  Li  Li181  1  0.27884239  0.42318005  0.79888620  1
  Li  Li182  1  0.16274614  0.84001757  0.81496526  1
  Li  Li183  1  0.09530182  0.50788679  0.79364052  1
  Li  Li184  1  0.54926297  0.66650177  0.71933061  1
  Li  Li185  1  0.39666222  0.17840877  0.77966007  1
  Li  Li186  1  0.50412596  0.75587772  0.76370553  1
  Li  Li187  1  0.44365170  0.09068155  0.73593614  1
  Li  Li188  1  0.22821355  0.12273632  0.75129744  1
  Li  Li189  1  0.71392883  0.72548694  0.74707397  1
  Li  Li190  1  0.47347866  0.04780528  0.78463925  1
  Li  Li191  1  0.77661759  0.29983535  0.81560199  1
  Li  Li192  1  0.22863658  0.47729033  0.75211405  1
  Li  Li193  1  0.72879082  0.37046135  0.75350740  1
  Li  Li194  1  0.29221887  0.55084297  0.82448131  1
  Li  Li195  1  0.97724676  0.79690279  0.78853979  1
  Li  Li196  1  0.00596453  0.09040536  0.76260198  1
  Li  Li197  1  0.94100352  0.75522052  0.73719391  1
  Li  Li198  1  0.48380671  0.92568422  0.81067272  1
  Li  Li199  1  0.78172069  0.42995260  0.79952504  1
  Li  Li200  1  0.66384545  0.00491977  0.81598843  1
  Li  Li201  1  0.58608724  0.33868979  0.79187533  1
  Li  Li202  1  0.05476897  0.17625801  0.71944254  1
  Li  Li203  1  0.89118225  0.67126119  0.77875451  1
  Li  Li204  1  0.87809597  0.04751935  0.80359137  1
  Li  Li205  1  0.37981538  0.30017107  0.80371639  1
  Li  Li206  1  0.37949655  0.80034368  0.80337790  1
  Li  Li207  1  0.88147215  0.54916194  0.80470520  1
  Li  Li208  1  0.29095854  0.42244193  0.91736568  1
  Li  Li209  1  0.61369756  0.90787899  0.91670399  1
  Li  Li210  1  0.49509231  0.34608676  0.92083137  1
  Li  Li211  1  0.39456629  0.00516181  0.89797979  1
  Li  Li212  1  0.87138693  0.17269259  0.82623794  1
  Li  Li213  1  0.70579666  0.66321201  0.88548743  1
  Li  Li214  1  0.82792337  0.25379956  0.86775616  1
  Li  Li215  1  0.75716377  0.58411362  0.84601352  1
  Li  Li216  1  0.52332795  0.62278804  0.85355113  1
  Li  Li217  1  0.04766141  0.22701601  0.86096819  1
  Li  Li218  1  0.80734668  0.54124455  0.90443522  1
  Li  Li219  1  0.08811272  0.79798420  0.92084611  1
  Li  Li220  1  0.55003176  0.97533862  0.86549458  1
  Li  Li221  1  0.04090977  0.87203917  0.86040167  1
  Li  Li222  1  0.57922372  0.03491697  0.91960835  1
  Li  Li223  1  0.30797273  0.29314205  0.89571599  1
  Li  Li224  1  0.32075211  0.59702371  0.87328217  1
  Li  Li225  1  0.25721654  0.25707089  0.84434756  1
  Li  Li226  1  0.74329151  0.40818630  0.91860804  1
  Li  Li227  1  0.09870097  0.92943520  0.90652291  1
  Li  Li228  1  0.99894312  0.49660090  0.92781076  1
  Li  Li229  1  0.89363275  0.83948613  0.90127852  1
  Li  Li230  1  0.36716496  0.68180071  0.82565015  1
  Li  Li231  1  0.21144849  0.16715200  0.88581560  1
  Li  Li232  1  0.19660656  0.54590607  0.91351716  1
  Li  Li233  1  0.69875376  0.79184383  0.91279484  1
  Li  Li234  1  0.70317969  0.28702931  0.91092085  1
  Li  Li235  1  0.20271053  0.04663608  0.91052678  1
  Li  Li236  1  0.19529777  0.67470374  0.93172732  1
  Li  Li237  1  0.02616180  0.22655440  0.99238217  1
  Li  Li238  1  0.13702306  0.76967976  0.97612889  1
  Li  Li239  1  0.07762208  0.07035348  0.94675543  1
  Li  Li240  1  0.95090021  0.09837320  0.98322225  1
  Li  Li241  1  0.34342533  0.73068148  0.97261736  1
  Li  Li242  1  0.83401388  0.47574647  0.95759591  1
  Li  Li243  1  0.35388935  0.37970407  0.96068933  1
  Li  Li244  1  0.71684840  0.14044731  0.99029636  1
  Li  Li245  1  0.54286683  0.76816436  0.97684616  1
  Li  Li246  1  0.69059224  0.15658904  0.93334809  1
  Li  Li247  1  0.44896948  0.68983853  0.02654176  1
  La  La248  1  0.64564629  0.59710239  0.07466742  1
  La  La249  1  0.83432249  0.22138073  0.10305593  1
  La  La250  1  0.50074689  0.96564023  0.04934775  1
  La  La251  1  0.34601731  0.34443505  0.02306124  1
  La  La252  1  0.65997359  0.28998538  0.03745101  1
  La  La253  1  0.14982648  0.03854401  0.03408079  1
  La  La254  1  0.14797985  0.52183265  0.03812166  1
  La  La255  1  0.67586255  0.78135329  0.03335345  1
  La  La256  1  0.13338937  0.70428065  0.07193387  1
  La  La257  1  0.33588593  0.08749633  0.09976365  1
  La  La258  1  0.99587375  0.34199471  0.04802174  1
  La  La259  1  0.84934988  0.95948766  0.01903615  1
  La  La260  1  0.34791922  0.08675054  0.18158103  1
  La  La261  1  0.51852033  0.71716921  0.20930895  1
  La  La262  1  0.17906386  0.46764181  0.15672867  1
  La  La263  1  0.00829368  0.83656321  0.12861689  1
  La  La264  1  0.33908558  0.77592815  0.14017547  1
  La  La265  1  0.83830749  0.52859215  0.14367492  1
  La  La266  1  0.84453620  0.02813309  0.14195815  1
  La  La267  1  0.34448178  0.27671590  0.14197431  1
  La  La268  1  0.84872386  0.21524456  0.18223622  1
  La  La269  1  0.01905089  0.58763296  0.21004064  1
  La  La270  1  0.68221280  0.83912807  0.15600796  1
  La  La271  1  0.50466893  0.47014487  0.12975331  1
  La  La272  1  0.03576594  0.58751187  0.28916126  1
  La  La273  1  0.20847130  0.21602351  0.31859649  1
  La  La274  1  0.86622650  0.96590283  0.26420771  1
  La  La275  1  0.68740366  0.33602261  0.23552648  1
  La  La276  1  0.02697549  0.27516541  0.24998452  1
  La  La277  1  0.52713891  0.02744182  0.24991447  1
  La  La278  1  0.52565266  0.52679808  0.24939246  1
  La  La279  1  0.02723570  0.77752596  0.24972004  1
  La  La280  1  0.53214873  0.71700947  0.28978213  1
  La  La281  1  0.70667435  0.08895721  0.31819297  1
  La  La282  1  0.36244085  0.33688529  0.26308065  1
  La  La283  1  0.18915758  0.96702977  0.23591276  1
  La  La284  1  0.72315137  0.07644729  0.39861964  1
  La  La285  1  0.89932560  0.70990841  0.42424114  1
  La  La286  1  0.54122638  0.46787384  0.37020379  1
  La  La287  1  0.37635486  0.83772725  0.34389611  1
  La  La288  1  0.71288483  0.77282976  0.35815184  1
  La  La289  1  0.21234614  0.52564683  0.35728725  1
  La  La290  1  0.21080560  0.02791448  0.35887421  1
  La  La291  1  0.70790853  0.27714083  0.35682124  1
  La  La292  1  0.21581260  0.21897796  0.40047349  1
  La  La293  1  0.38558983  0.59334354  0.42522512  1
  La  La294  1  0.04539781  0.83475403  0.36986436  1
  La  La295  1  0.87117055  0.46755731  0.34126410  1
  La  La296  1  0.20364859  0.96277448  0.47152709  1
  La  La297  1  0.03929577  0.34558926  0.44988028  1
  La  La298  1  0.41222343  0.26766387  0.46603802  1
  La  La299  1  0.89545820  0.02412292  0.46447119  1
  La  La300  1  0.87190179  0.53616522  0.46476356  1
  La  La301  1  0.38688118  0.77100346  0.46462776  1
  La  La302  1  0.71832362  0.34194482  0.46933680  1
  La  La303  1  0.56026344  0.95368642  0.45482219  1
  La  La304  1  0.60405604  0.97762594  0.57468130  1
  La  La305  1  0.41574939  0.35344228  0.60310907  1
  La  La306  1  0.74907070  0.60938336  0.54931687  1
  La  La307  1  0.90416459  0.23046628  0.52289493  1
  La  La308  1  0.59019817  0.28475233  0.53751716  1
  La  La309  1  0.10012031  0.53668654  0.53412613  1
  La  La310  1  0.10201912  0.05282835  0.53810752  1
  La  La311  1  0.57394350  0.79347674  0.53340315  1
  La  La312  1  0.11645194  0.87030946  0.57199749  1
  La  La313  1  0.91438408  0.48760843  0.59980383  1
  La  La314  1  0.25440098  0.23263763  0.54784634  1
  La  La315  1  0.40050988  0.61542419  0.51908184  1
  La  La316  1  0.90241456  0.48844917  0.68159452  1
  La  La317  1  0.73150496  0.85782377  0.70939190  1
  La  La318  1  0.07093782  0.10726058  0.65670207  1
  La  La319  1  0.24155764  0.73828548  0.62862822  1
  La  La320  1  0.91069816  0.79917032  0.64020172  1
  La  La321  1  0.41138384  0.04629174  0.64370492  1
  La  La322  1  0.40558782  0.54672366  0.64195366  1
  La  La323  1  0.90567816  0.29839344  0.64194553  1
  La  La324  1  0.40158965  0.35965282  0.68224314  1
  La  La325  1  0.23122501  0.98756828  0.71010618  1
  La  La326  1  0.56768252  0.73577776  0.65609891  1
  La  La327  1  0.74525681  0.10485454  0.62971472  1
  La  La328  1  0.21436022  0.98757720  0.78919017  1
  La  La329  1  0.04165462  0.35901359  0.81866469  1
  La  La330  1  0.38381024  0.60910332  0.76427532  1
  La  La331  1  0.56258629  0.23905899  0.73558364  1
  La  La332  1  0.22319870  0.29993709  0.74999045  1
  La  La333  1  0.72298683  0.54782912  0.74994802  1
  La  La334  1  0.72456680  0.04825915  0.74949341  1
  La  La335  1  0.22291623  0.79760239  0.74973434  1
  La  La336  1  0.71815638  0.85800939  0.78983380  1
  La  La337  1  0.54330593  0.48595696  0.81827496  1
  La  La338  1  0.88796223  0.23834787  0.76302114  1
  La  La339  1  0.06101943  0.60804278  0.73599617  1
  La  La340  1  0.52641517  0.49869271  0.89876053  1
  La  La341  1  0.35049199  0.86511439  0.92433465  1
  La  La342  1  0.70912056  0.10712205  0.87022023  1
  La  La343  1  0.87383124  0.73721572  0.84397614  1
  La  La344  1  0.53704174  0.80207452  0.85822541  1
  La  La345  1  0.03796784  0.04938391  0.85727759  1
  La  La346  1  0.03908639  0.54695949  0.85908475  1
  La  La347  1  0.54258833  0.29789842  0.85686714  1
  La  La348  1  0.03421739  0.35609805  0.90051068  1
  La  La349  1  0.86449850  0.98157937  0.92523358  1
  La  La350  1  0.20453618  0.74056089  0.86998445  1
  La  La351  1  0.37948983  0.10750295  0.84123273  1
  La  La352  1  0.04620374  0.61212585  0.97169658  1
  La  La353  1  0.21070592  0.22938763  0.94985776  1
  La  La354  1  0.83741756  0.30715254  0.96605424  1
  La  La355  1  0.35443643  0.55115135  0.96462662  1
  La  La356  1  0.37765285  0.03891048  0.96477235  1
  La  La357  1  0.86282902  0.80396209  0.96462663  1
  La  La358  1  0.53134324  0.23315097  0.96929798  1
  La  La359  1  0.68953572  0.62147010  0.95489803  1
  Zr  Zr360  1  0.75122025  0.41106109  0.08959627  1
  Zr  Zr361  1  0.43505249  0.14450445  0.02955374  1
  Zr  Zr362  1  0.75696671  0.90337528  0.08709254  1
  Zr  Zr363  1  0.88257398  0.64236707  0.03058571  1
  Zr  Zr364  1  0.91053425  0.15995923  0.03621547  1
  Zr  Zr365  1  0.25394735  0.40023830  0.08909589  1
  Zr  Zr366  1  0.25338281  0.89129865  0.08427252  1
  Zr  Zr367  1  0.43332110  0.90293639  0.19514304  1
  Zr  Zr368  1  0.09371955  0.15061445  0.14147624  1
  Zr  Zr369  1  0.08809715  0.65155585  0.14238320  1
  Zr  Zr370  1  0.43254353  0.40123311  0.19605653  1
  Zr  Zr371  1  0.59243607  0.15170167  0.14165119  1
  Zr  Zr372  1  0.58581793  0.65632900  0.14147115  1
  Zr  Zr373  1  0.93689717  0.90180748  0.19595864  1
  Zr  Zr374  1  0.93459305  0.40036045  0.19622128  1
  Zr  Zr375  1  0.12038767  0.40024028  0.30353054  1
  Zr  Zr376  1  0.77577047  0.65300663  0.24961808  1
  Zr  Zr377  1  0.77678240  0.15110800  0.24977476  1
  Zr  Zr378  1  0.12153975  0.90338689  0.30383067  1
  Zr  Zr379  1  0.27721978  0.65297905  0.24961577  1
  Zr  Zr380  1  0.27754513  0.15056946  0.25027368  1
  Zr  Zr381  1  0.61676924  0.40192639  0.30285366  1
  Zr  Zr382  1  0.61742883  0.90285249  0.30398390  1
  Zr  Zr383  1  0.79737620  0.88785035  0.41375154  1
  Zr  Zr384  1  0.46142573  0.15361197  0.35994046  1
  Zr  Zr385  1  0.46557741  0.65387278  0.35831277  1
  Zr  Zr386  1  0.79842379  0.40945626  0.40808342  1
  Zr  Zr387  1  0.96230815  0.15270291  0.35876145  1
  Zr  Zr388  1  0.96582762  0.65054896  0.35594825  1
  Zr  Zr389  1  0.30528447  0.90241802  0.41115259  1
  Zr  Zr390  1  0.29931763  0.40525418  0.41363749  1
  Zr  Zr391  1  0.13682816  0.65149615  0.46711851  1
  Zr  Zr392  1  0.12713869  0.16742341  0.47358526  1
  Zr  Zr393  1  0.65715387  0.14599647  0.46869955  1
  Zr  Zr394  1  0.49889948  0.16392374  0.58964169  1
  Zr  Zr395  1  0.81455335  0.43052422  0.52958567  1
  Zr  Zr396  1  0.49282605  0.67137737  0.58710786  1
  Zr  Zr397  1  0.36708501  0.93223837  0.53057405  1
  Zr  Zr398  1  0.33905446  0.41488067  0.53626658  1
  Zr  Zr399  1  0.99574127  0.17452790  0.58903544  1
  Zr  Zr400  1  0.99627780  0.68379840  0.58421338  1
  Zr  Zr401  1  0.81649542  0.67212305  0.69520849  1
  Zr  Zr402  1  0.15673058  0.42428361  0.64139827  1
  Zr  Zr403  1  0.16150641  0.92335930  0.64250945  1
  Zr  Zr404  1  0.81741207  0.17392059  0.69605993  1
  Zr  Zr405  1  0.65772496  0.42338408  0.64171333  1
  Zr  Zr406  1  0.66387472  0.91883641  0.64160475  1
  Zr  Zr407  1  0.31298865  0.67310621  0.69599244  1
  Zr  Zr408  1  0.31505357  0.17482608  0.69617105  1
  Zr  Zr409  1  0.12999055  0.17498982  0.80359976  1
  Zr  Zr410  1  0.47441222  0.92195195  0.74970692  1
  Zr  Zr411  1  0.47342077  0.42411723  0.74977044  1
  Zr  Zr412  1  0.12894102  0.67200365  0.80397423  1
  Zr  Zr413  1  0.97301493  0.92212535  0.74965141  1
  Zr  Zr414  1  0.97256732  0.42471627  0.75041681  1
  Zr  Zr415  1  0.63354839  0.17314849  0.80290687  1
  Zr  Zr416  1  0.63261317  0.67204738  0.80411432  1
  Zr  Zr417  1  0.45227615  0.68723107  0.91386817  1
  Zr  Zr418  1  0.78885153  0.42146873  0.85992046  1
  Zr  Zr419  1  0.78487058  0.92100517  0.85839572  1
  Zr  Zr420  1  0.45149175  0.16526014  0.90807065  1
  Zr  Zr421  1  0.28794861  0.42224995  0.85884103  1
  Zr  Zr422  1  0.28446249  0.92463282  0.85599326  1
  Zr  Zr423  1  0.94439514  0.67226005  0.91126191  1
  Zr  Zr424  1  0.95074483  0.16975984  0.91363633  1
  Zr  Zr425  1  0.11313358  0.92321024  0.96726018  1
  Zr  Zr426  1  0.12206554  0.40734288  0.97370559  1
  Zr  Zr427  1  0.59257737  0.42892966  0.96870507  1
  O  O428  1  0.91362703  0.94797749  0.10190418  1
  O  O429  1  0.59562898  0.85394215  0.07102636  1
  O  O430  1  0.44928597  0.25027093  0.04857509  1
  O  O431  1  0.45236367  0.04198324  0.01204804  1
  O  O432  1  0.52500853  0.69387497  0.05964906  1
  O  O433  1  0.66040940  0.31023571  0.08521955  1
  O  O434  1  0.83473924  0.50977249  0.09512928  1
  O  O435  1  0.34657664  0.18067401  0.99331151  1
  O  O436  1  0.50233561  0.08650389  0.06502561  1
  O  O437  1  0.71436858  0.98871461  0.05878175  1
  O  O438  1  0.89647672  0.34593984  0.09922712  1
  O  O439  1  0.59288972  0.47434351  0.08508649  1
  O  O440  1  0.54909281  0.39333050  0.03249942  1
  O  O441  1  0.31253402  0.89144404  0.04270997  1
  O  O442  1  0.33721377  0.45130445  0.05409417  1
  O  O443  1  0.75263503  0.16977949  0.05998728  1
  O  O444  1  0.06049771  0.14288015  0.01152717  1
  O  O445  1  0.97317812  0.56113207  0.00960207  1
  O  O446  1  0.79080961  0.69671549  0.06266384  1
  O  O447  1  0.81244564  0.40908966  0.04884762  1
  O  O448  1  0.03363407  0.93684903  0.03432665  1
  O  O449  1  0.26695189  0.60623938  0.06269997  1
  O  O450  1  0.47147448  0.78112162  0.01075963  1
  O  O451  1  0.59545771  0.17790805  0.01316585  1
  O  O452  1  0.27042161  0.13878542  0.05054672  1
  O  O453  1  0.84581872  0.85246215  0.05468562  1
  O  O454  1  0.75460776  0.56051608  0.03675808  1
  O  O455  1  0.01966441  0.71801361  0.03143669  1
  O  O456  1  0.81736001  0.08673167  0.01051378  1
  O  O457  1  0.98840459  0.22448341  0.06827210  1
  O  O458  1  0.20589057  0.31741529  0.06208914  1
  O  O459  1  0.41020152  0.95667053  0.09397426  1
  O  O460  1  0.09530753  0.83249928  0.08149675  1
  O  O461  1  0.99767104  0.59603798  0.06369147  1
  O  O462  1  0.79314976  0.69117481  0.99628039  1
  O  O463  1  0.88319679  0.26118474  0.01470289  1
  O  O464  1  0.96893478  0.07446274  0.05811803  1
  O  O465  1  0.09020941  0.44920393  0.07513204  1
  O  O466  1  0.41285312  0.35767630  0.10269959  1
  O  O467  1  0.33897143  0.79032394  0.08739182  1
  O  O468  1  0.17751909  0.99722116  0.08456013  1
  O  O469  1  0.59286679  0.44800587  0.20949489  1
  O  O470  1  0.27332348  0.35493547  0.18166270  1
  O  O471  1  0.13002841  0.75333307  0.15870283  1
  O  O472  1  0.05316985  0.54926807  0.12609945  1
  O  O473  1  0.97411538  0.10314954  0.11409165  1
  O  O474  1  0.21157401  0.19846977  0.16979674  1
  O  O475  1  0.34706338  0.80316886  0.19242678  1
  O  O476  1  0.51859347  0.00441718  0.19725662  1
  O  O477  1  0.99064666  0.70767805  0.11074016  1
  O  O478  1  0.17069037  0.59155576  0.17390312  1
  O  O479  1  0.80200549  0.81328167  0.11203200  1
  O  O480  1  0.38045552  0.49082692  0.17199905  1
  O  O481  1  0.58955334  0.84301743  0.20423971  1
  O  O482  1  0.27726192  0.96381042  0.18871025  1
  O  O483  1  0.97537333  0.23858132  0.14107923  1
  O  O484  1  0.21133505  0.06127683  0.14315761  1
  O  O485  1  0.22401854  0.88643471  0.12846098  1
  O  O486  1  0.97297407  0.41133477  0.15386809  1
  O  O487  1  0.02392332  0.94312354  0.16009113  1
  O  O488  1  0.16942203  0.35338963  0.12295613  1
  O  O489  1  0.42562763  0.66522019  0.16427423  1
  O  O490  1  0.73918671  0.64605974  0.11719838  1
  O  O491  1  0.70358571  0.10590501  0.11133037  1
  O  O492  1  0.48204580  0.19584130  0.17279451  1
  O  O493  1  0.47346757  0.89302320  0.15276736  1
  O  O494  1  0.71252278  0.41623206  0.13273622  1
  O  O495  1  0.98604372  0.10443077  0.17294969  1
  O  O496  1  0.19989031  0.18958600  0.10795312  1
  O  O497  1  0.23719399  0.66244337  0.11755660  1
  O  O498  1  0.92552643  0.64247456  0.16489741  1
  O  O499  1  0.66943835  0.94626010  0.12192535  1
  O  O500  1  0.51449361  0.35703546  0.16042194  1
  O  O501  1  0.47609069  0.06167175  0.13816404  1
  O  O502  1  0.70466011  0.24281322  0.14410057  1
  O  O503  1  0.48599654  0.60004908  0.11129690  1
  O  O504  1  0.67038156  0.71620746  0.17291524  1
  O  O505  1  0.29835026  0.49271008  0.11278547  1
  O  O506  1  0.88408405  0.81468208  0.17071127  1
  O  O507  1  0.08770397  0.46341149  0.20389946  1
  O  O508  1  0.77911931  0.33930356  0.18837013  1
  O  O509  1  0.71064539  0.10614466  0.17062805  1
  O  O510  1  0.47910282  0.19925291  0.11225746  1
  O  O511  1  0.55276953  0.75864673  0.12369355  1
  O  O512  1  0.62758518  0.55633392  0.15931876  1
  O  O513  1  0.77743800  0.94950748  0.18165238  1
  O  O514  1  0.09513464  0.85524718  0.21028557  1
  O  O515  1  0.02004504  0.29986862  0.19889195  1
  O  O516  1  0.84569893  0.50082502  0.19393945  1
  O  O517  1  0.27632644  0.95110157  0.31954332  1
  O  O518  1  0.96001459  0.85680411  0.28984772  1
  O  O519  1  0.81856583  0.25171575  0.26726399  1
  O  O520  1  0.73348455  0.05077096  0.23241364  1
  O  O521  1  0.65826843  0.60691773  0.22071061  1
  O  O522  1  0.89443206  0.69965028  0.27790371  1
  O  O523  1  0.03451675  0.29956360  0.30176664  1
  O  O524  1  0.20752924  0.50030519  0.30589864  1
  O  O525  1  0.69260858  0.21259510  0.21888674  1
  O  O526  1  0.86633177  0.09028123  0.28033185  1
  O  O527  1  0.48308995  0.31371297  0.22100237  1
  O  O528  1  0.07075588  0.99052339  0.27885838  1
  O  O529  1  0.27517476  0.33804836  0.31035865  1
  O  O530  1  0.96566765  0.46113620  0.29454863  1
  O  O531  1  0.65958188  0.74290052  0.24762480  1
  O  O532  1  0.89101026  0.56279522  0.25171202  1
  O  O533  1  0.89795172  0.38984020  0.23879748  1
  O  O534  1  0.65585957  0.91339276  0.26132120  1
  O  O535  1  0.69956201  0.44643139  0.26743753  1
  O  O536  1  0.85245150  0.85761965  0.23130360  1
  O  O537  1  0.11951149  0.16064460  0.27411473  1
  O  O538  1  0.43769451  0.14181994  0.22719325  1
  O  O539  1  0.38619019  0.60839933  0.21826190  1
  O  O540  1  0.16813391  0.69749569  0.28072280  1
  O  O541  1  0.15371240  0.39005172  0.26062176  1
  O  O542  1  0.40165566  0.91266644  0.23832352  1
  O  O543  1  0.66664050  0.60831691  0.28087945  1
  O  O544  1  0.88407937  0.69760058  0.21843417  1
  O  O545  1  0.93677420  0.16032839  0.22664121  1
  O  O546  1  0.62117100  0.14147087  0.27418367  1
  O  O547  1  0.35053232  0.44705808  0.23127956  1
  O  O548  1  0.20412399  0.85818393  0.26871750  1
  O  O549  1  0.16068307  0.56338922  0.24772491  1
  O  O550  1  0.39465385  0.74161963  0.25147967  1
  O  O551  1  0.19439739  0.09041212  0.21891836  1
  O  O552  1  0.36773718  0.21097494  0.28105521  1
  O  O553  1  0.98449863  0.98936167  0.22139225  1
  O  O554  1  0.56661369  0.31073967  0.27888946  1
  O  O555  1  0.77505624  0.96287452  0.31286113  1
  O  O556  1  0.46300441  0.84159873  0.29691387  1
  O  O557  1  0.39380950  0.60606095  0.27855852  1
  O  O558  1  0.15935469  0.69907490  0.22089979  1
  O  O559  1  0.23524103  0.25098166  0.23284287  1
  O  O560  1  0.31901552  0.05016140  0.26770082  1
  O  O561  1  0.45741637  0.44759072  0.28858872  1
  O  O562  1  0.77577716  0.35360492  0.31645006  1
  O  O563  1  0.70463280  0.80235703  0.30638563  1
  O  O564  1  0.53501924  0.00466807  0.30131640  1
  O  O565  1  0.95621429  0.45320977  0.42636953  1
  O  O566  1  0.63719730  0.36346573  0.39542579  1
  O  O567  1  0.50310009  0.75716963  0.37429618  1
  O  O568  1  0.42269392  0.55284802  0.34060721  1
  O  O569  1  0.34863676  0.10414537  0.33082341  1
  O  O570  1  0.58189130  0.20426958  0.38680809  1
  O  O571  1  0.72104660  0.78664678  0.40904317  1
  O  O572  1  0.89237667  0.98897621  0.41590999  1
  O  O573  1  0.37986201  0.71372976  0.32678406  1
  O  O574  1  0.55777164  0.59628199  0.38955102  1
  O  O575  1  0.17353141  0.81362457  0.32812831  1
  O  O576  1  0.75214710  0.49910438  0.38445955  1
  O  O577  1  0.96037506  0.83299268  0.41658640  1
  O  O578  1  0.65041375  0.95631437  0.40842529  1
  O  O579  1  0.33945811  0.23990025  0.35765644  1
  O  O580  1  0.58353099  0.06578900  0.36056895  1
  O  O581  1  0.58218309  0.89643739  0.34659859  1
  O  O582  1  0.33353401  0.41269328  0.36916876  1
  O  O583  1  0.38691613  0.95195165  0.37785625  1
  O  O584  1  0.53149766  0.35734283  0.33804527  1
  O  O585  1  0.81547732  0.66136953  0.37979673  1
  O  O586  1  0.12796179  0.64030980  0.33381459  1
  O  O587  1  0.07369613  0.10472036  0.32829161  1
  O  O588  1  0.85008321  0.19655551  0.38833931  1
  O  O589  1  0.83326342  0.88549769  0.36992489  1
  O  O590  1  0.08379971  0.41180439  0.34588450  1
  O  O591  1  0.35484538  0.11474740  0.39264626  1
  O  O592  1  0.57161722  0.19727931  0.32763234  1
  O  O593  1  0.62494039  0.66137089  0.33536678  1
  O  O594  1  0.30889455  0.64185497  0.38190915  1
  O  O595  1  0.03491747  0.94331870  0.34017358  1
  O  O596  1  0.88293595  0.36153951  0.37390158  1
  O  O597  1  0.85009219  0.05878732  0.35725818  1
  O  O598  1  0.07858419  0.24092032  0.35998817  1
  O  O599  1  0.88407050  0.59002330  0.32436677  1
  O  O600  1  0.05916663  0.71060294  0.38642575  1
  O  O601  1  0.66846427  0.48881020  0.32728170  1
  O  O602  1  0.25762309  0.81393685  0.38765783  1
  O  O603  1  0.44948858  0.47184750  0.41638408  1
  O  O604  1  0.14269754  0.34359037  0.40349235  1
  O  O605  1  0.07619911  0.10818682  0.38936609  1
  O  O606  1  0.84564240  0.19562812  0.32875169  1
  O  O607  1  0.92541727  0.75253727  0.33931419  1
  O  O608  1  0.00262019  0.54941109  0.37385958  1
  O  O609  1  0.14568756  0.95124646  0.39954677  1
  O  O610  1  0.46284862  0.86084081  0.42886852  1
  O  O611  1  0.37741891  0.30258017  0.41574800  1
  O  O612  1  0.21183110  0.50676997  0.40835059  1
  O  O613  1  0.09919201  0.27509435  0.49001078  1
  O  O614  1  0.10410118  0.06178922  0.45163211  1
  O  O615  1  0.03126138  0.60546964  0.43569266  1
  O  O616  1  0.21481537  0.73111105  0.49081880  1
  O  O617  1  0.04658286  0.21846190  0.43876212  1
  O  O618  1  0.20772302  0.15192997  0.51157742  1
  O  O619  1  0.84548962  0.31550730  0.43017698  1
  O  O620  1  0.98249636  0.74070072  0.46837102  1
  O  O621  1  0.26881853  0.57223242  0.46862342  1
  O  O622  1  0.23369525  0.40381665  0.45424983  1
  O  O623  1  0.01151509  0.92189021  0.47540970  1
  O  O624  1  0.21273795  0.85406515  0.44523743  1
  O  O625  1  0.49468853  0.15233629  0.48805841  1
  O  O626  1  0.80701490  0.13050229  0.43966267  1
  O  O627  1  0.76802304  0.61194017  0.43600425  1
  O  O628  1  0.50344491  0.71448757  0.49968917  1
  O  O629  1  0.51961819  0.36689291  0.46425776  1
  O  O630  1  0.75136775  0.88962243  0.45645620  1
  O  O631  1  0.02833342  0.59644828  0.49380671  1
  O  O632  1  0.23844638  0.69532306  0.43441198  1
  O  O633  1  0.28503292  0.16730045  0.44944725  1
  O  O634  1  0.97162133  0.12851247  0.49227414  1
  O  O635  1  0.71459884  0.45523609  0.44242494  1
  O  O636  1  0.56527787  0.08121509  0.43760071  1
  O  O637  1  0.77486300  0.22857271  0.48336175  1
  O  O638  1  0.35363896  0.99552983  0.43797544  1
  O  O639  1  0.48796250  0.70110701  0.43248895  1
  O  O640  1  0.59523259  0.23317601  0.44390867  1
  O  O641  1  0.71902182  0.05433081  0.48863174  1
  O  O642  1  0.33630653  0.62667541  0.60194273  1
  O  O643  1  0.65419988  0.72084000  0.57103544  1
  O  O644  1  0.80085703  0.32459364  0.54869437  1
  O  O645  1  0.79722131  0.53287347  0.51199253  1
  O  O646  1  0.72512999  0.88109376  0.55952495  1
  O  O647  1  0.58962292  0.26462779  0.58523523  1
  O  O648  1  0.41505033  0.06534585  0.59517845  1
  O  O649  1  0.90314217  0.39405821  0.49339482  1
  O  O650  1  0.74762500  0.48857291  0.56502140  1
  O  O651  1  0.53537810  0.58611022  0.55877402  1
  O  O652  1  0.35362237  0.22888730  0.59929074  1
  O  O653  1  0.65708345  0.10056250  0.58502267  1
  O  O654  1  0.70100910  0.18145501  0.53235306  1
  O  O655  1  0.93673530  0.68345349  0.54269737  1
  O  O656  1  0.91275631  0.12359547  0.55401831  1
  O  O657  1  0.49704581  0.40510243  0.56004409  1
  O  O658  1  0.18913771  0.43201352  0.51153421  1
  O  O659  1  0.27628163  0.01342533  0.50954494  1
  O  O660  1  0.45908992  0.87803740  0.56262960  1
  O  O661  1  0.43774844  0.16581625  0.54886887  1
  O  O662  1  0.21558286  0.63859605  0.53415781  1
  O  O663  1  0.98307364  0.96843897  0.56266544  1
  O  O664  1  0.77777594  0.79433975  0.51055930  1
  O  O665  1  0.65422342  0.39684638  0.51328728  1
  O  O666  1  0.97929201  0.43623599  0.55052356  1
  O  O667  1  0.40394482  0.72208848  0.55471489  1
  O  O668  1  0.49510064  0.01418769  0.53674688  1
  O  O669  1  0.23035483  0.85643197  0.53153047  1
  O  O670  1  0.43214604  0.48818260  0.51060974  1
  O  O671  1  0.26136938  0.35014428  0.56820641  1
  O  O672  1  0.04424074  0.25774307  0.56218984  1
  O  O673  1  0.83977804  0.61828781  0.59396644  1
  O  O674  1  0.15466692  0.74219152  0.58153429  1
  O  O675  1  0.25226377  0.97872799  0.56370350  1
  O  O676  1  0.45662547  0.88363269  0.49620932  1
  O  O677  1  0.36633696  0.31379130  0.51465981  1
  O  O678  1  0.28055383  0.50047511  0.55811914  1
  O  O679  1  0.15982250  0.12567536  0.57507528  1
  O  O680  1  0.83720901  0.21718096  0.60273706  1
  O  O681  1  0.91145214  0.78502878  0.58725272  1
  O  O682  1  0.07253077  0.57788895  0.58453390  1
  O  O683  1  0.65708208  0.12720176  0.70959650  1
  O  O684  1  0.97683777  0.22006063  0.68165012  1
  O  O685  1  0.11969370  0.82153280  0.65880235  1
  O  O686  1  0.19656466  0.02548269  0.62610380  1
  O  O687  1  0.27675425  0.47118680  0.61399099  1
  O  O688  1  0.03866326  0.37637142  0.66968447  1
  O  O689  1  0.90258729  0.77204551  0.69248531  1
  O  O690  1  0.73134098  0.57064807  0.69729891  1
  O  O691  1  0.25889170  0.86704851  0.61082892  1
  O  O692  1  0.07945967  0.98345674  0.67397900  1
  O  O693  1  0.44790667  0.76154714  0.61206660  1
  O  O694  1  0.86935989  0.08434410  0.67197667  1
  O  O695  1  0.66023853  0.73192344  0.70430888  1
  O  O696  1  0.97266304  0.61132239  0.68874202  1
  O  O697  1  0.27592821  0.33670939  0.64127257  1
  O  O698  1  0.03940780  0.51372749  0.64315706  1
  O  O699  1  0.02536937  0.68880858  0.62843040  1
  O  O700  1  0.27677109  0.16353482  0.65377436  1
  O  O701  1  0.22556431  0.63206011  0.66014055  1
  O  O702  1  0.08072359  0.22176945  0.62273860  1
  O  O703  1  0.82410945  0.91005799  0.66431928  1
  O  O704  1  0.51044554  0.92874873  0.61726882  1
  O  O705  1  0.54686884  0.46907774  0.61134959  1
  O  O706  1  0.76861751  0.37968624  0.67288144  1
  O  O707  1  0.77616202  0.68205463  0.65280868  1
  O  O708  1  0.53767074  0.15881433  0.63281623  1
  O  O709  1  0.26427303  0.47072320  0.67289385  1
  O  O710  1  0.05037680  0.38549009  0.60787773  1
  O  O711  1  0.01241306  0.91244057  0.61766687  1
  O  O712  1  0.32439075  0.93246287  0.66493016  1
  O  O713  1  0.58052442  0.62851023  0.62195620  1
  O  O714  1  0.73541471  0.21843130  0.66051033  1
  O  O715  1  0.77444322  0.51355342  0.63818306  1
  O  O716  1  0.54560972  0.33258370  0.64416808  1
  O  O717  1  0.76348232  0.97490944  0.61127121  1
  O  O718  1  0.57977784  0.85875961  0.67300180  1
  O  O719  1  0.95150757  0.08205152  0.61272560  1
  O  O720  1  0.36588661  0.76014299  0.67069611  1
  O  O721  1  0.16189812  0.11171255  0.70382446  1
  O  O722  1  0.47063937  0.23566491  0.68840758  1
  O  O723  1  0.53973803  0.46911647  0.67063734  1
  O  O724  1  0.77144848  0.37602627  0.61228432  1
  O  O725  1  0.69730025  0.81651430  0.62370067  1
  O  O726  1  0.62215249  0.01877704  0.65930178  1
  O  O727  1  0.47229094  0.62533852  0.68167999  1
  O  O728  1  0.15462650  0.71975689  0.71032650  1
  O  O729  1  0.23003599  0.27509446  0.69914872  1
  O  O730  1  0.40405855  0.07416444  0.69393965  1
  O  O731  1  0.97378919  0.62457720  0.81970585  1
  O  O732  1  0.29015181  0.71865013  0.78993129  1
  O  O733  1  0.43199093  0.32351122  0.76728448  1
  O  O734  1  0.51643907  0.52453420  0.73242599  1
  O  O735  1  0.59208544  0.96802860  0.72076875  1
  O  O736  1  0.35510913  0.87538210  0.77782290  1
  O  O737  1  0.21583667  0.27554583  0.80181795  1
  O  O738  1  0.04322025  0.07480063  0.80587730  1
  O  O739  1  0.55800088  0.36257570  0.71887361  1
  O  O740  1  0.38370656  0.48476033  0.78032995  1
  O  O741  1  0.76704936  0.26183837  0.72082480  1
  O  O742  1  0.17942588  0.58484563  0.77900622  1
  O  O743  1  0.97539218  0.23716171  0.81031019  1
  O  O744  1  0.28459436  0.11392059  0.79451374  1
  O  O745  1  0.59045422  0.83192420  0.74781775  1
  O  O746  1  0.35983563  0.01242562  0.75175969  1
  O  O747  1  0.35245635  0.18519485  0.73878499  1
  O  O748  1  0.59416260  0.66163661  0.76149027  1
  O  O749  1  0.55080257  0.12867536  0.76747057  1
  O  O750  1  0.39732396  0.71722401  0.73138325  1
  O  O751  1  0.13064358  0.41452559  0.77422091  1
  O  O752  1  0.81265097  0.43367488  0.72728217  1
  O  O753  1  0.86415153  0.96680174  0.71831003  1
  O  O754  1  0.08200740  0.87755681  0.78075797  1
  O  O755  1  0.09661514  0.18533048  0.76063174  1
  O  O756  1  0.84839235  0.66233977  0.73839179  1
  O  O757  1  0.58379878  0.96685604  0.78091835  1
  O  O758  1  0.36624480  0.87732224  0.71847774  1
  O  O759  1  0.31359475  0.41478444  0.72661638  1
  O  O760  1  0.62895258  0.43388299  0.77413897  1
  O  O761  1  0.89960995  0.12839185  0.73128896  1
  O  O762  1  0.04599825  0.71687360  0.76883014  1
  O  O763  1  0.08955260  0.01172287  0.74771479  1
  O  O764  1  0.85553948  0.83341748  0.75148797  1
  O  O765  1  0.05603563  0.48458320  0.71900661  1
  O  O766  1  0.88217534  0.36428819  0.78117776  1
  O  O767  1  0.26540704  0.58557795  0.72145338  1
  O  O768  1  0.68355805  0.26440679  0.77885428  1
  O  O769  1  0.47489314  0.61202440  0.81296460  1
  O  O770  1  0.78696107  0.73335002  0.79696564  1
  O  O771  1  0.85643325  0.96885330  0.77864423  1
  O  O772  1  0.09107193  0.87608667  0.72097623  1
  O  O773  1  0.01461015  0.32425916  0.73281193  1
  O  O774  1  0.93032953  0.52495187  0.76791394  1
  O  O775  1  0.79314758  0.12762259  0.78868798  1
  O  O776  1  0.47434060  0.22125147  0.81646142  1
  O  O777  1  0.54496580  0.77244248  0.80653444  1
  O  O778  1  0.71491303  0.57018132  0.80152920  1
  O  O779  1  0.29366922  0.12150340  0.92632938  1
  O  O780  1  0.61288793  0.21111836  0.89543206  1
  O  O781  1  0.74691903  0.81778175  0.87432221  1
  O  O782  1  0.82801383  0.02195836  0.84057444  1
  O  O783  1  0.90184956  0.47144737  0.83090887  1
  O  O784  1  0.66926549  0.37008383  0.88670175  1
  O  O785  1  0.52877042  0.78840514  0.90913483  1
  O  O786  1  0.35713921  0.58618752  0.91608001  1
  O  O787  1  0.87024858  0.86109896  0.82682972  1
  O  O788  1  0.69267740  0.97871659  0.88956102  1
  O  O789  1  0.07672483  0.76178241  0.82822885  1
  O  O790  1  0.49815239  0.07574163  0.88443704  1
  O  O791  1  0.28913364  0.74203026  0.91670154  1
  O  O792  1  0.59921069  0.61877390  0.90858509  1
  O  O793  1  0.91130848  0.33539814  0.85774786  1
  O  O794  1  0.66654888  0.50921226  0.86081743  1
  O  O795  1  0.66763496  0.67859438  0.84671362  1
  O  O796  1  0.91648451  0.16243189  0.86916377  1
  O  O797  1  0.86268546  0.62294272  0.87796770  1
  O  O798  1  0.71868437  0.21832179  0.83796242  1
  O  O799  1  0.43494998  0.91356931  0.87978600  1
  O  O800  1  0.12245256  0.93484103  0.83380917  1
  O  O801  1  0.17666105  0.47055476  0.82841427  1
  O  O802  1  0.40014230  0.37838559  0.88844184  1
  O  O803  1  0.41683032  0.68956499  0.87004516  1
  O  O804  1  0.16645661  0.16312674  0.84591589  1
  O  O805  1  0.89589764  0.46045979  0.89262423  1
  O  O806  1  0.67862166  0.37843451  0.82756105  1
  O  O807  1  0.62559341  0.91392032  0.83539727  1
  O  O808  1  0.94153275  0.93286407  0.88196321  1
  O  O809  1  0.21523393  0.63194432  0.84030910  1
  O  O810  1  0.36730150  0.21333076  0.87389002  1
  O  O811  1  0.39998235  0.51641424  0.85734482  1
  O  O812  1  0.17190183  0.33404879  0.86003940  1
  O  O813  1  0.36617527  0.98515003  0.82438826  1
  O  O814  1  0.19131595  0.86462244  0.88644938  1
  O  O815  1  0.58277233  0.08627252  0.82743106  1
  O  O816  1  0.99253079  0.76078746  0.88781909  1
  O  O817  1  0.80073861  0.10301811  0.91641780  1
  O  O818  1  0.10751016  0.23123962  0.90347701  1
  O  O819  1  0.17410756  0.46662145  0.88944788  1
  O  O820  1  0.40464382  0.37930027  0.82883167  1
  O  O821  1  0.32442153  0.82252098  0.83939967  1
  O  O822  1  0.24791908  0.02568599  0.87389096  1
  O  O823  1  0.10391623  0.62339073  0.89972857  1
  O  O824  1  0.78704842  0.71420024  0.92898193  1
  O  O825  1  0.87294172  0.27241472  0.91589119  1
  O  O826  1  0.03822874  0.06813409  0.90827540  1
  O  O827  1  0.15039148  0.29937811  0.99012697  1
  O  O828  1  0.14558249  0.51315981  0.95181511  1
  O  O829  1  0.21822956  0.96936112  0.93580823  1
  O  O830  1  0.03494557  0.84375484  0.99104276  1
  O  O831  1  0.20312796  0.35654894  0.93893053  1
  O  O832  1  0.04205802  0.42285990  0.01171123  1
  O  O833  1  0.40422405  0.25906153  0.93012599  1
  O  O834  1  0.26701556  0.83434639  0.96851029  1
  O  O835  1  0.98067885  0.00245505  0.96865471  1
  O  O836  1  0.01631047  0.17094921  0.95424828  1
  O  O837  1  0.23841845  0.65315055  0.97570136  1
  O  O838  1  0.03696460  0.72058555  0.94543197  1
  O  O839  1  0.75487216  0.42250502  0.98812157  1
  O  O840  1  0.44239349  0.44462340  0.93978007  1
  O  O841  1  0.48155040  0.96310291  0.93596312  1
  O  O842  1  0.74641319  0.86020247  0.99968352  1
  O  O843  1  0.72996014  0.20794056  0.96415751  1
  O  O844  1  0.49831093  0.68540052  0.95661493  1
  O  O845  1  0.22127937  0.97857250  0.99387846  1
  O  O846  1  0.01148457  0.87917703  0.93455136  1
  O  O847  1  0.96453062  0.40768449  0.94954675  1
  O  O848  1  0.27818482  0.44613235  0.99225819  1
  O  O849  1  0.53518002  0.11950557  0.94246852  1
  O  O850  1  0.68455601  0.49357789  0.93757958  1
  O  O851  1  0.47489178  0.34651223  0.98341236  1
  O  O852  1  0.89594045  0.57939952  0.93816141  1
  O  O853  1  0.76182405  0.87406785  0.93254007  1
  O  O854  1  0.65430057  0.34163571  0.94390789  1
  O  O855  1  0.53076063  0.52042899  0.98873636  1
