# generated using pymatgen
data_Li68La30Zr18O115
_symmetry_space_group_name_H-M   'P 1'
_cell_length_a   11.27162600
_cell_length_b   18.66058700
_cell_length_c   52.39702082
_cell_angle_alpha   90.00000000
_cell_angle_beta   90.00000000
_cell_angle_gamma   89.99896220
_symmetry_Int_Tables_number   1
_chemical_formula_structural   Li68La30Zr18O115
_chemical_formula_sum   'Li272 La120 Zr72 O460'
_cell_volume   11020.93563141
_cell_formula_units_Z   4
loop_
 _symmetry_equiv_pos_site_id
 _symmetry_equiv_pos_as_xyz
  1  'x, y, z'
loop_
 _atom_site_type_symbol
 _atom_site_label
 _atom_site_symmetry_multiplicity
 _atom_site_fract_x
 _atom_site_fract_y
 _atom_site_fract_z
 _atom_site_occupancy
  Li  Li0  1  0.14529049  0.21448945  0.00473770  1
  Li  Li1  1  0.54360796  0.24559588  0.09298348  1
  Li  Li2  1  0.00139551  0.32412136  0.99689523  1
  Li  Li3  1  0.73899217  0.16380026  0.08943335  1
  Li  Li4  1  0.27631130  0.97241769  0.00210879  1
  Li  Li5  1  0.43000176  0.48098147  0.08137061  1
  Li  Li6  1  0.31227768  0.90268191  0.05808207  1
  Li  Li7  1  0.36205175  0.57486995  0.03696502  1
  Li  Li8  1  0.58313578  0.54311109  0.04591141  1
  Li  Li9  1  0.11712969  0.95919854  0.03952163  1
  Li  Li10  1  0.35144057  0.60868855  0.08471998  1
  Li  Li11  1  0.36327932  0.85008711  0.01849713  1
  Li  Li12  1  0.60867827  0.19378465  0.04939790  1
  Li  Li13  1  0.11688126  0.28157415  0.04638459  1
  Li  Li14  1  0.87555579  0.60403637  0.01291044  1
  Li  Li15  1  0.83840118  0.86628134  0.08839720  1
  Li  Li16  1  0.81212309  0.58120730  0.06352822  1
  Li  Li17  1  0.90728179  0.92625819  0.04944358  1
  Li  Li18  1  0.65272973  0.22129179  0.00502110  1
  Li  Li19  1  0.03124956  0.23513777  0.09575635  1
  Li  Li20  1  0.38028293  0.13393722  0.00078889  1
  Li  Li21  1  0.20525676  0.31922906  0.08868732  1
  Li  Li22  1  0.78121541  0.50171229  0.02926349  1
  Li  Li23  1  0.95031474  0.00643990  0.08386827  1
  Li  Li24  1  0.93909188  0.61583151  0.10135750  1
  Li  Li25  1  0.43952494  0.36078316  0.09880610  1
  Li  Li26  1  0.44113510  0.86352373  0.09898470  1
  Li  Li27  1  0.94229559  0.11670757  0.10207948  1
  Li  Li28  1  0.84101297  0.73812692  0.10462685  1
  Li  Li29  1  0.22532250  0.74435884  0.19461312  1
  Li  Li30  1  0.65378791  0.82436529  0.11095102  1
  Li  Li31  1  0.41834907  0.65762503  0.18911335  1
  Li  Li32  1  0.95950284  0.49224634  0.12243461  1
  Li  Li33  1  0.11787826  0.98898408  0.17772842  1
  Li  Li34  1  0.00484341  0.40461931  0.16296974  1
  Li  Li35  1  0.07375183  0.07105387  0.13863293  1
  Li  Li36  1  0.29410313  0.04358889  0.14710047  1
  Li  Li37  1  0.78680460  0.43854183  0.14911968  1
  Li  Li38  1  0.02660164  0.11414166  0.18738839  1
  Li  Li39  1  0.02448913  0.36088485  0.11816458  1
  Li  Li40  1  0.28290044  0.68843436  0.15128699  1
  Li  Li41  1  0.78917572  0.79353025  0.14909136  1
  Li  Li42  1  0.55469565  0.11582527  0.11011620  1
  Li  Li43  1  0.53582949  0.36435540  0.18284174  1
  Li  Li44  1  0.50669167  0.07389426  0.16041782  1
  Li  Li45  1  0.56464480  0.40730111  0.13758326  1
  Li  Li46  1  0.34175505  0.74120717  0.10403471  1
  Li  Li47  1  0.72734388  0.73927482  0.19406266  1
  Li  Li48  1  0.16220977  0.65595619  0.11119785  1
  Li  Li49  1  0.91571363  0.82300692  0.18931172  1
  Li  Li50  1  0.46019520  0.98867035  0.12096222  1
  Li  Li51  1  0.61524087  0.49223845  0.17784791  1
  Li  Li52  1  0.62690783  0.11575151  0.19965454  1
  Li  Li53  1  0.12746715  0.86542557  0.19981294  1
  Li  Li54  1  0.13018958  0.36459863  0.20027861  1
  Li  Li55  1  0.62766687  0.61519191  0.19976648  1
  Li  Li56  1  0.52624004  0.23947216  0.20602094  1
  Li  Li57  1  0.91565043  0.24343191  0.29442083  1
  Li  Li58  1  0.34436968  0.32361163  0.21087344  1
  Li  Li59  1  0.10323554  0.15646190  0.28886728  1
  Li  Li60  1  0.64151180  0.99455889  0.22143067  1
  Li  Li61  1  0.79892861  0.48640656  0.27764604  1
  Li  Li62  1  0.68818245  0.90731842  0.26175455  1
  Li  Li63  1  0.75078687  0.57367468  0.23777802  1
  Li  Li64  1  0.96544879  0.54382020  0.25090935  1
  Li  Li65  1  0.47258120  0.93792408  0.24909579  1
  Li  Li66  1  0.71482184  0.61446644  0.28493499  1
  Li  Li67  1  0.72279685  0.86516980  0.21498819  1
  Li  Li68  1  0.96837537  0.18733654  0.25094112  1
  Li  Li69  1  0.46369136  0.29270540  0.25350481  1
  Li  Li70  1  0.23091207  0.61558165  0.21184390  1
  Li  Li71  1  0.21624288  0.86430504  0.28487596  1
  Li  Li72  1  0.18695421  0.57396844  0.26035049  1
  Li  Li73  1  0.25180927  0.90673591  0.23774804  1
  Li  Li74  1  0.02857569  0.24163961  0.20587864  1
  Li  Li75  1  0.41420013  0.23289836  0.29604146  1
  Li  Li76  1  0.83821601  0.15639306  0.21110931  1
  Li  Li77  1  0.60662370  0.32257181  0.28950552  1
  Li  Li78  1  0.13990673  0.48932629  0.22179374  1
  Li  Li79  1  0.29942609  0.99110419  0.27728406  1
  Li  Li80  1  0.31438872  0.61452423  0.29940311  1
  Li  Li81  1  0.81323418  0.36503336  0.29928060  1
  Li  Li82  1  0.81292625  0.86555291  0.29985303  1
  Li  Li83  1  0.31321984  0.11329053  0.30044397  1
  Li  Li84  1  0.21450491  0.73830081  0.30532105  1
  Li  Li85  1  0.59787514  0.74081722  0.39573146  1
  Li  Li86  1  0.02547229  0.82270785  0.31043170  1
  Li  Li87  1  0.78634287  0.65447113  0.38824397  1
  Li  Li88  1  0.32448403  0.48901604  0.32157351  1
  Li  Li89  1  0.48328758  0.98355289  0.37909622  1
  Li  Li90  1  0.37600312  0.40755511  0.36083878  1
  Li  Li91  1  0.43804059  0.07433809  0.33844852  1
  Li  Li92  1  0.64402580  0.04282146  0.35438815  1
  Li  Li93  1  0.14541413  0.43645784  0.35167942  1
  Li  Li94  1  0.39644813  0.11017119  0.38684491  1
  Li  Li95  1  0.41906789  0.36193799  0.31335411  1
  Li  Li96  1  0.64987332  0.69008118  0.35102687  1
  Li  Li97  1  0.14889938  0.79467356  0.35122524  1
  Li  Li98  1  0.91829062  0.11462136  0.31222838  1
  Li  Li99  1  0.92109777  0.36707233  0.37899346  1
  Li  Li100  1  0.87110490  0.07220270  0.36226599  1
  Li  Li101  1  0.93711747  0.40550650  0.33503162  1
  Li  Li102  1  0.71411257  0.74269055  0.30522192  1
  Li  Li103  1  0.09693302  0.73864590  0.39525046  1
  Li  Li104  1  0.52637222  0.65827748  0.31009652  1
  Li  Li105  1  0.28910110  0.82421536  0.38842281  1
  Li  Li106  1  0.82129154  0.99068542  0.32305053  1
  Li  Li107  1  0.98214174  0.49719376  0.37626643  1
  Li  Li108  1  0.01231164  0.12409731  0.39855889  1
  Li  Li109  1  0.50134406  0.86122785  0.40168236  1
  Li  Li110  1  0.49999341  0.35747632  0.40114592  1
  Li  Li111  1  0.00494008  0.61630737  0.39883941  1
  Li  Li112  1  0.91049184  0.24559003  0.40454696  1
  Li  Li113  1  0.42007534  0.30660003  0.50519691  1
  Li  Li114  1  0.72735476  0.32201748  0.40985256  1
  Li  Li115  1  0.51641293  0.14793435  0.50000623  1
  Li  Li116  1  0.98538693  0.01393790  0.41381538  1
  Li  Li117  1  0.14780287  0.47828501  0.47195011  1
  Li  Li118  1  0.00917350  0.92928266  0.44455431  1
  Li  Li119  1  0.14065257  0.57221177  0.44669276  1
  Li  Li120  1  0.35486578  0.54440058  0.45270011  1
  Li  Li121  1  0.81674576  0.98070844  0.46783755  1
  Li  Li122  1  0.05444417  0.59500318  0.48865021  1
  Li  Li123  1  0.10382628  0.86591866  0.41062116  1
  Li  Li124  1  0.34578298  0.18708879  0.46661850  1
  Li  Li125  1  0.84786379  0.29333899  0.44983228  1
  Li  Li126  1  0.59670014  0.60896403  0.41084020  1
  Li  Li127  1  0.56951352  0.84462440  0.48149758  1
  Li  Li128  1  0.56904898  0.57230423  0.46052569  1
  Li  Li129  1  0.63394620  0.90432534  0.44448285  1
  Li  Li130  1  0.40992290  0.23581768  0.41251133  1
  Li  Li131  1  0.79959407  0.23151069  0.49162768  1
  Li  Li132  1  0.22636556  0.16481567  0.41406888  1
  Li  Li133  1  0.90230626  0.33184212  0.50598333  1
  Li  Li134  1  0.50767499  0.48148318  0.41556424  1
  Li  Li135  1  0.61854755  0.96201376  0.49775256  1
  Li  Li136  1  0.28010600  0.10892596  0.50511534  1
  Li  Li137  1  0.87919203  0.08067459  0.59278792  1
  Li  Li138  1  0.42420884  0.00066268  0.49703965  1
  Li  Li139  1  0.68561793  0.16113912  0.58958652  1
  Li  Li140  1  0.14934050  0.35278511  0.50215282  1
  Li  Li141  1  0.99423554  0.84650250  0.58164985  1
  Li  Li142  1  0.11369243  0.42228292  0.55780688  1
  Li  Li143  1  0.06296130  0.75021609  0.53708200  1
  Li  Li144  1  0.84234871  0.78164769  0.54615362  1
  Li  Li145  1  0.30776728  0.36451743  0.53912752  1
  Li  Li146  1  0.07022463  0.71766737  0.58382493  1
  Li  Li147  1  0.06087426  0.47594618  0.51816060  1
  Li  Li148  1  0.81765512  0.13209807  0.54934520  1
  Li  Li149  1  0.30877254  0.04275405  0.54682594  1
  Li  Li150  1  0.55073124  0.72099198  0.51291587  1
  Li  Li151  1  0.58767649  0.45807306  0.58783193  1
  Li  Li152  1  0.61327576  0.74352586  0.56379154  1
  Li  Li153  1  0.51575407  0.39784917  0.54959828  1
  Li  Li154  1  0.77168967  0.10329867  0.50485653  1
  Li  Li155  1  0.39393659  0.08955089  0.59591642  1
  Li  Li156  1  0.04448546  0.19091064  0.50088232  1
  Li  Li157  1  0.21873602  0.00518687  0.58880444  1
  Li  Li158  1  0.64423554  0.82313373  0.52939912  1
  Li  Li159  1  0.47268577  0.31756098  0.58423509  1
  Li  Li160  1  0.48563788  0.70863864  0.60137521  1
  Li  Li161  1  0.98392990  0.96620253  0.59892417  1
  Li  Li162  1  0.98485815  0.46277413  0.59880222  1
  Li  Li163  1  0.48369084  0.20760576  0.60205716  1
  Li  Li164  1  0.58315948  0.58599024  0.60465512  1
  Li  Li165  1  0.19921343  0.58038387  0.69471582  1
  Li  Li166  1  0.77180720  0.50040691  0.61121622  1
  Li  Li167  1  0.00444306  0.66751468  0.68927754  1
  Li  Li168  1  0.46591678  0.83245235  0.62246778  1
  Li  Li169  1  0.30559691  0.33653055  0.67761003  1
  Li  Li170  1  0.42073292  0.92043493  0.66296275  1
  Li  Li171  1  0.35141102  0.25384008  0.63846911  1
  Li  Li172  1  0.12932759  0.28118973  0.64704778  1
  Li  Li173  1  0.63725955  0.88599428  0.64896566  1
  Li  Li174  1  0.39711994  0.21135860  0.68702333  1
  Li  Li175  1  0.40057737  0.96408730  0.61806166  1
  Li  Li176  1  0.14160440  0.63667859  0.65161227  1
  Li  Li177  1  0.63607585  0.53223795  0.64939155  1
  Li  Li178  1  0.87021838  0.20951171  0.61052018  1
  Li  Li179  1  0.88763241  0.96032539  0.68270600  1
  Li  Li180  1  0.91830825  0.25086371  0.66094498  1
  Li  Li181  1  0.85959266  0.91745416  0.63765043  1
  Li  Li182  1  0.08487435  0.58465059  0.60457128  1
  Li  Li183  1  0.69724882  0.58684104  0.69414293  1
  Li  Li184  1  0.26163367  0.66993530  0.61133472  1
  Li  Li185  1  0.50792987  0.50223589  0.68909162  1
  Li  Li186  1  0.96457352  0.33668730  0.62100615  1
  Li  Li187  1  0.80907815  0.83230086  0.67819359  1
  Li  Li188  1  0.79673554  0.20930157  0.69986064  1
  Li  Li189  1  0.29689696  0.45938428  0.69987412  1
  Li  Li190  1  0.29384788  0.96026826  0.70010926  1
  Li  Li191  1  0.79677344  0.70942781  0.69991562  1
  Li  Li192  1  0.89908819  0.08533993  0.70597996  1
  Li  Li193  1  0.51007296  0.08141921  0.79468171  1
  Li  Li194  1  0.07957153  0.00299615  0.71094147  1
  Li  Li195  1  0.31991924  0.16887707  0.78899730  1
  Li  Li196  1  0.78298669  0.33205005  0.72171524  1
  Li  Li197  1  0.62612810  0.83864544  0.77761871  1
  Li  Li198  1  0.73620166  0.41858035  0.76132732  1
  Li  Li199  1  0.67358204  0.75299744  0.73789907  1
  Li  Li200  1  0.45889163  0.78091252  0.75106315  1
  Li  Li201  1  0.95369211  0.38740310  0.74997738  1
  Li  Li202  1  0.71016796  0.71116169  0.78476206  1
  Li  Li203  1  0.69810121  0.45997437  0.71398847  1
  Li  Li204  1  0.45811479  0.13766028  0.75148679  1
  Li  Li205  1  0.96118881  0.03232512  0.75378059  1
  Li  Li206  1  0.19147897  0.70960832  0.71166575  1
  Li  Li207  1  0.20325524  0.46061977  0.78354272  1
  Li  Li208  1  0.23776688  0.75089144  0.76061671  1
  Li  Li209  1  0.17240189  0.41844009  0.73732822  1
  Li  Li210  1  0.39541064  0.08313779  0.70602179  1
  Li  Li211  1  0.00933441  0.09102832  0.79601942  1
  Li  Li212  1  0.58450306  0.16848471  0.71099452  1
  Li  Li213  1  0.81790026  0.00256286  0.78942810  1
  Li  Li214  1  0.28493910  0.83584702  0.72192658  1
  Li  Li215  1  0.12478815  0.33273845  0.77738276  1
  Li  Li216  1  0.11163523  0.71041574  0.79960826  1
  Li  Li217  1  0.61176304  0.95963071  0.79923717  1
  Li  Li218  1  0.61218971  0.45971162  0.79996483  1
  Li  Li219  1  0.11013599  0.21104563  0.80047231  1
  Li  Li220  1  0.21162595  0.58460347  0.80582623  1
  Li  Li221  1  0.82831234  0.58388454  0.89607710  1
  Li  Li222  1  0.39790942  0.50154989  0.81040769  1
  Li  Li223  1  0.63726607  0.67036340  0.88826659  1
  Li  Li224  1  0.10042693  0.83685516  0.82181492  1
  Li  Li225  1  0.94261930  0.34093112  0.87882003  1
  Li  Li226  1  0.04878072  0.91774957  0.86123000  1
  Li  Li227  1  0.98785716  0.25093834  0.83833232  1
  Li  Li228  1  0.78124624  0.28193697  0.85413600  1
  Li  Li229  1  0.27941581  0.88812352  0.85190963  1
  Li  Li230  1  0.03097229  0.21480652  0.88663895  1
  Li  Li231  1  0.00745287  0.96288404  0.81332703  1
  Li  Li232  1  0.77677643  0.63516950  0.85152558  1
  Li  Li233  1  0.27785822  0.52959956  0.85227818  1
  Li  Li234  1  0.50553559  0.21013477  0.81214114  1
  Li  Li235  1  0.50432161  0.95781256  0.87917232  1
  Li  Li236  1  0.55464254  0.25271199  0.86223098  1
  Li  Li237  1  0.48809981  0.91969952  0.83523735  1
  Li  Li238  1  0.71114185  0.58329447  0.80550450  1
  Li  Li239  1  0.32975349  0.58648498  0.89552478  1
  Li  Li240  1  0.89847064  0.66687230  0.81000390  1
  Li  Li241  1  0.13446135  0.50010919  0.88873282  1
  Li  Li242  1  0.60199793  0.33400402  0.82299823  1
  Li  Li243  1  0.44249837  0.82760130  0.87644525  1
  Li  Li244  1  0.41376087  0.20075502  0.89847436  1
  Li  Li245  1  0.92233232  0.46299527  0.90170223  1
  Li  Li246  1  0.92629926  0.96733820  0.90133011  1
  Li  Li247  1  0.41987959  0.70892031  0.89898705  1
  Li  Li248  1  0.51663637  0.07889244  0.90464262  1
  Li  Li249  1  0.00523251  0.01771698  0.00543828  1
  Li  Li250  1  0.69974561  0.00239163  0.91008753  1
  Li  Li251  1  0.91136170  0.17705229  0.99953459  1
  Li  Li252  1  0.43941963  0.31095682  0.91382695  1
  Li  Li253  1  0.27743727  0.84587824  0.97196504  1
  Li  Li254  1  0.41675286  0.39614001  0.94451175  1
  Li  Li255  1  0.28516383  0.75291276  0.94615350  1
  Li  Li256  1  0.06970585  0.78010052  0.95248200  1
  Li  Li257  1  0.60891275  0.34401266  0.96781610  1
  Li  Li258  1  0.37093543  0.73059168  0.98846424  1
  Li  Li259  1  0.32136805  0.45926213  0.91047754  1
  Li  Li260  1  0.08092296  0.13662202  0.96560488  1
  Li  Li261  1  0.57741181  0.03201714  0.95009493  1
  Li  Li262  1  0.82780865  0.71514619  0.91080809  1
  Li  Li263  1  0.85634422  0.47920612  0.98175702  1
  Li  Li264  1  0.85555638  0.75175976  0.96070407  1
  Li  Li265  1  0.79174486  0.41970998  0.94483161  1
  Li  Li266  1  0.01652288  0.08925780  0.91249432  1
  Li  Li267  1  0.62517179  0.09312739  0.99165842  1
  Li  Li268  1  0.19960205  0.16078571  0.91407306  1
  Li  Li269  1  0.52152575  0.99300157  0.00617669  1
  Li  Li270  1  0.91604212  0.84267523  0.91590946  1
  Li  Li271  1  0.80798507  0.36206809  0.99797591  1
  La  La272  1  0.60324879  0.67619106  0.08667105  1
  La  La273  1  0.06169096  0.82312224  0.01029870  1
  La  La274  1  0.44370228  0.05041975  0.05899672  1
  La  La275  1  0.28298505  0.41643880  0.03772447  1
  La  La276  1  0.59998916  0.36488078  0.04423477  1
  La  La277  1  0.10854388  0.11584453  0.05334964  1
  La  La278  1  0.08653162  0.61594060  0.05427470  1
  La  La279  1  0.59385015  0.86025494  0.05051450  1
  La  La280  1  0.10560760  0.80572895  0.08574882  1
  La  La281  1  0.61735829  0.68377361  0.01241757  1
  La  La282  1  0.93869549  0.43086155  0.06509875  1
  La  La283  1  0.77506351  0.06829782  0.04221398  1
  La  La284  1  0.29072749  0.17535596  0.18690352  1
  La  La285  1  0.77422719  0.30782723  0.11229386  1
  La  La286  1  0.12224230  0.55362382  0.16246611  1
  La  La287  1  0.95142065  0.92497231  0.13766224  1
  La  La288  1  0.28592527  0.86441961  0.14990465  1
  La  La289  1  0.78402217  0.61544725  0.14991519  1
  La  La290  1  0.78766016  0.11462016  0.15020305  1
  La  La291  1  0.28456845  0.36387898  0.14972972  1
  La  La292  1  0.79139710  0.30394396  0.18684473  1
  La  La293  1  0.28761293  0.17731247  0.11197406  1
  La  La294  1  0.62430498  0.92623996  0.16289119  1
  La  La295  1  0.44871865  0.55669364  0.13799841  1
  La  La296  1  0.97461318  0.67671115  0.28680341  1
  La  La297  1  0.46475596  0.80495337  0.21260836  1
  La  La298  1  0.80804869  0.05409747  0.26247774  1
  La  La299  1  0.63214433  0.42444111  0.23652799  1
  La  La300  1  0.97110984  0.36509258  0.24979975  1
  La  La301  1  0.47118515  0.11518341  0.25008813  1
  La  La302  1  0.46984232  0.61496073  0.24954814  1
  La  La303  1  0.97022083  0.86472898  0.24976917  1
  La  La304  1  0.47619718  0.80536166  0.28679165  1
  La  La305  1  0.96608781  0.67552499  0.21246859  1
  La  La306  1  0.30772461  0.42602216  0.26250469  1
  La  La307  1  0.13348234  0.05428137  0.23732503  1
  La  La308  1  0.66304868  0.17574532  0.38898124  1
  La  La309  1  0.15587571  0.30398133  0.31321046  1
  La  La310  1  0.48920148  0.55738659  0.36011986  1
  La  La311  1  0.31652476  0.92658564  0.33659140  1
  La  La312  1  0.65537468  0.86548293  0.34983469  1
  La  La313  1  0.15508991  0.61699872  0.34880279  1
  La  La314  1  0.15616635  0.11356634  0.34964593  1
  La  La315  1  0.65878237  0.36363723  0.34976604  1
  La  La316  1  0.17107164  0.30397283  0.38778472  1
  La  La317  1  0.65479635  0.17437318  0.31344060  1
  La  La318  1  0.98813347  0.92465482  0.36201108  1
  La  La319  1  0.81666770  0.55474673  0.33615286  1
  La  La320  1  0.31125652  0.68201658  0.48672881  1
  La  La321  1  0.83148451  0.80475229  0.41408976  1
  La  La322  1  0.16655296  0.06328950  0.45813013  1
  La  La323  1  0.00323607  0.43221956  0.43248059  1
  La  La324  1  0.33477344  0.37426703  0.45160401  1
  La  La325  1  0.85603529  0.12467651  0.44624548  1
  La  La326  1  0.85272257  0.61489490  0.44524000  1
  La  La327  1  0.34089787  0.85742872  0.44929646  1
  La  La328  1  0.86185287  0.82716416  0.48849287  1
  La  La329  1  0.33329149  0.67608121  0.41254037  1
  La  La330  1  0.65768126  0.42190877  0.46034123  1
  La  La331  1  0.49395993  0.04485854  0.43994953  1
  La  La332  1  0.82168845  0.64849320  0.58682391  1
  La  La333  1  0.36334160  0.50173064  0.51039406  1
  La  La334  1  0.98162777  0.27456739  0.55901640  1
  La  La335  1  0.14217642  0.90829417  0.53771488  1
  La  La336  1  0.82496289  0.96016075  0.54397081  1
  La  La337  1  0.31674839  0.20857788  0.55338891  1
  La  La338  1  0.33873549  0.70903297  0.55429826  1
  La  La339  1  0.83142560  0.46462751  0.55052231  1
  La  La340  1  0.31973562  0.51942757  0.58582081  1
  La  La341  1  0.80748793  0.64114062  0.51240081  1
  La  La342  1  0.48676438  0.89383251  0.56515300  1
  La  La343  1  0.65001948  0.25661351  0.54231788  1
  La  La344  1  0.13416765  0.14992898  0.68691841  1
  La  La345  1  0.65085166  0.01705692  0.61242415  1
  La  La346  1  0.30230413  0.77178720  0.66256198  1
  La  La347  1  0.47354380  0.40034942  0.63765225  1
  La  La348  1  0.13856973  0.46055708  0.64998898  1
  La  La349  1  0.64054533  0.70966513  0.64999037  1
  La  La350  1  0.63726539  0.21048049  0.65024771  1
  La  La351  1  0.14031332  0.96119514  0.64970157  1
  La  La352  1  0.63324895  0.02113598  0.68690462  1
  La  La353  1  0.13704788  0.14758012  0.61198911  1
  La  La354  1  0.80040342  0.39859599  0.66288382  1
  La  La355  1  0.97597502  0.76812137  0.63812125  1
  La  La356  1  0.45005769  0.64820643  0.78693587  1
  La  La357  1  0.95911448  0.52000566  0.71277620  1
  La  La358  1  0.61664474  0.27122382  0.76252289  1
  La  La359  1  0.79293993  0.90099789  0.73660004  1
  La  La360  1  0.45351110  0.96000254  0.74981552  1
  La  La361  1  0.95332038  0.20990914  0.75005675  1
  La  La362  1  0.95489269  0.71021887  0.74964360  1
  La  La363  1  0.45400967  0.46046610  0.74981355  1
  La  La364  1  0.94757494  0.52015660  0.78694482  1
  La  La365  1  0.45809962  0.64967731  0.71258010  1
  La  La366  1  0.11730322  0.89902416  0.76250179  1
  La  La367  1  0.29122665  0.27067339  0.73731613  1
  La  La368  1  0.76324737  0.14903577  0.88899817  1
  La  La369  1  0.26964317  0.02097263  0.81324556  1
  La  La370  1  0.93610237  0.76768890  0.86021964  1
  La  La371  1  0.10888576  0.39861217  0.83648393  1
  La  La372  1  0.76951821  0.45959328  0.84991246  1
  La  La373  1  0.27009698  0.70780478  0.84892654  1
  La  La374  1  0.26958412  0.21146367  0.84959131  1
  La  La375  1  0.76682731  0.96128599  0.84979109  1
  La  La376  1  0.25473434  0.02108534  0.88772178  1
  La  La377  1  0.77040520  0.15078972  0.81345177  1
  La  La378  1  0.43725645  0.39988725  0.86207128  1
  La  La379  1  0.60849027  0.77023186  0.83617926  1
  La  La380  1  0.11441716  0.64297319  0.98673878  1
  La  La381  1  0.59403560  0.51998651  0.91410944  1
  La  La382  1  0.25921933  0.26205628  0.95820652  1
  La  La383  1  0.42210050  0.89296862  0.93256854  1
  La  La384  1  0.09035330  0.95092704  0.95183302  1
  La  La385  1  0.56984492  0.20041216  0.94625068  1
  La  La386  1  0.57305443  0.70995336  0.94526521  1
  La  La387  1  0.08443353  0.46765784  0.94934241  1
  La  La388  1  0.56382364  0.49736337  0.98851237  1
  La  La389  1  0.09218409  0.64882857  0.91259146  1
  La  La390  1  0.76724232  0.90269208  0.96044724  1
  La  La391  1  0.93175790  0.27980401  0.93985450  1
  Zr  Zr392  1  0.68558796  0.49040171  0.09979998  1
  Zr  Zr393  1  0.34600425  0.72582349  0.04708337  1
  Zr  Zr394  1  0.36017848  0.23565461  0.04628989  1
  Zr  Zr395  1  0.69431057  0.98983146  0.10018015  1
  Zr  Zr396  1  0.84924325  0.74545726  0.04887386  1
  Zr  Zr397  1  0.86798855  0.24746980  0.04967936  1
  Zr  Zr398  1  0.19609071  0.48655025  0.09993105  1
  Zr  Zr399  1  0.19830950  0.98585483  0.09943452  1
  Zr  Zr400  1  0.37819315  0.99110872  0.19965690  1
  Zr  Zr401  1  0.03691879  0.23796881  0.15030382  1
  Zr  Zr402  1  0.03545040  0.73978351  0.14952162  1
  Zr  Zr403  1  0.37776725  0.48949206  0.19981953  1
  Zr  Zr404  1  0.53544282  0.23875903  0.14956111  1
  Zr  Zr405  1  0.53519013  0.74124515  0.14960478  1
  Zr  Zr406  1  0.87888063  0.98926547  0.19997306  1
  Zr  Zr407  1  0.87797851  0.48996509  0.19979135  1
  Zr  Zr408  1  0.06392971  0.49041011  0.29938713  1
  Zr  Zr409  1  0.72025578  0.73987188  0.24969627  1
  Zr  Zr410  1  0.72107497  0.24022374  0.24996750  1
  Zr  Zr411  1  0.06137452  0.98889432  0.29980848  1
  Zr  Zr412  1  0.22022952  0.73963376  0.24974330  1
  Zr  Zr413  1  0.22140506  0.23969189  0.25008947  1
  Zr  Zr414  1  0.56301126  0.48858892  0.29921791  1
  Zr  Zr415  1  0.56339280  0.99101843  0.30015173  1
  Zr  Zr416  1  0.74574152  0.98613906  0.40192478  1
  Zr  Zr417  1  0.41221631  0.23752428  0.35205719  1
  Zr  Zr418  1  0.40578623  0.74216572  0.34967703  1
  Zr  Zr419  1  0.74509891  0.48684991  0.39861598  1
  Zr  Zr420  1  0.90892806  0.23989747  0.34960749  1
  Zr  Zr421  1  0.90439211  0.73972615  0.35002769  1
  Zr  Zr422  1  0.24669013  0.98858332  0.39956292  1
  Zr  Zr423  1  0.25250788  0.49394874  0.39856654  1
  Zr  Zr424  1  0.08273457  0.74503829  0.45098779  1
  Zr  Zr425  1  0.09944909  0.25000653  0.45255466  1
  Zr  Zr426  1  0.58728977  0.72172104  0.45250468  1
  Zr  Zr427  1  0.60696982  0.23771562  0.45580862  1
  Zr  Zr428  1  0.73960456  0.83445144  0.59987983  1
  Zr  Zr429  1  0.07926312  0.59936596  0.54728551  1
  Zr  Zr430  1  0.06495319  0.08902236  0.54630542  1
  Zr  Zr431  1  0.73067514  0.33511539  0.60017849  1
  Zr  Zr432  1  0.57607714  0.57948769  0.54889031  1
  Zr  Zr433  1  0.55809098  0.07710932  0.54979553  1
  Zr  Zr434  1  0.22889082  0.83866352  0.59995455  1
  Zr  Zr435  1  0.22647911  0.33938062  0.59944148  1
  Zr  Zr436  1  0.04596826  0.33394421  0.69973474  1
  Zr  Zr437  1  0.38788937  0.08698316  0.65035637  1
  Zr  Zr438  1  0.38881623  0.58566345  0.64958796  1
  Zr  Zr439  1  0.04685240  0.83581057  0.69985437  1
  Zr  Zr440  1  0.88933164  0.08649292  0.64965330  1
  Zr  Zr441  1  0.88936994  0.58370408  0.64975790  1
  Zr  Zr442  1  0.54525519  0.33571266  0.69999262  1
  Zr  Zr443  1  0.54676312  0.83519999  0.69988847  1
  Zr  Zr444  1  0.36122492  0.83470017  0.79950762  1
  Zr  Zr445  1  0.70408287  0.58542992  0.74972064  1
  Zr  Zr446  1  0.70369367  0.08497055  0.74995318  1
  Zr  Zr447  1  0.36280038  0.33620902  0.79978131  1
  Zr  Zr448  1  0.20414570  0.58571367  0.74987752  1
  Zr  Zr449  1  0.20332555  0.08549362  0.75016124  1
  Zr  Zr450  1  0.86229479  0.83648324  0.79928652  1
  Zr  Zr451  1  0.86096705  0.33440242  0.80014830  1
  Zr  Zr452  1  0.67959731  0.33851339  0.90190596  1
  Zr  Zr453  1  0.01349649  0.08733981  0.85199201  1
  Zr  Zr454  1  0.01948560  0.58274089  0.84981425  1
  Zr  Zr455  1  0.67996064  0.83788591  0.89862737  1
  Zr  Zr456  1  0.51694403  0.08504104  0.84969622  1
  Zr  Zr457  1  0.52063116  0.58502678  0.85005024  1
  Zr  Zr458  1  0.17896442  0.33658851  0.89955149  1
  Zr  Zr459  1  0.17248941  0.83137217  0.89868011  1
  Zr  Zr460  1  0.34282639  0.58003964  0.95108124  1
  Zr  Zr461  1  0.32612299  0.07532350  0.95249427  1
  Zr  Zr462  1  0.83808643  0.60251298  0.95261688  1
  Zr  Zr463  1  0.81862620  0.08695107  0.95583871  1
  O  O464  1  0.53440236  0.94309890  0.08665533  1
  O  O465  1  0.40172488  0.34335573  0.06237260  1
  O  O466  1  0.30893116  0.13600319  0.03351662  1
  O  O467  1  0.24423187  0.65003531  0.02606295  1
  O  O468  1  0.46381198  0.78197673  0.07437920  1
  O  O469  1  0.60179651  0.39156394  0.09926295  1
  O  O470  1  0.24194052  0.29899295  0.02198088  1
  O  O471  1  0.44501091  0.17963694  0.07616823  1
  O  O472  1  0.64899345  0.08288607  0.07913418  1
  O  O473  1  0.11789888  0.94166939  0.00227943  1
  O  O474  1  0.52954956  0.55141093  0.09397011  1
  O  O475  1  0.23371034  0.81950990  0.04334080  1
  O  O476  1  0.47261200  0.64185114  0.05051981  1
  O  O477  1  0.46582782  0.47200415  0.03114283  1
  O  O478  1  0.23478803  0.99694744  0.06055521  1
  O  O479  1  0.28025719  0.52724349  0.06658002  1
  O  O480  1  0.43547403  0.93417010  0.02928897  1
  O  O481  1  0.69882962  0.26377042  0.06973734  1
  O  O482  1  0.01968252  0.21203330  0.02937716  1
  O  O483  1  0.96993120  0.69666219  0.02157808  1
  O  O484  1  0.73753077  0.78818686  0.07874716  1
  O  O485  1  0.71833249  0.47761239  0.06046842  1
  O  O486  1  0.97574514  0.01706588  0.04116441  1
  O  O487  1  0.23922061  0.69249482  0.07880468  1
  O  O488  1  0.45437649  0.76785094  0.01909936  1
  O  O489  1  0.51596684  0.24954813  0.02666587  1
  O  O490  1  0.19939602  0.22736872  0.07179914  1
  O  O491  1  0.93472429  0.53713397  0.03926167  1
  O  O492  1  0.77147159  0.94869294  0.06665899  1
  O  O493  1  0.73329241  0.66044044  0.04998476  1
  O  O494  1  0.96474958  0.83459494  0.05133822  1
  O  O495  1  0.76666263  0.18617317  0.02593625  1
  O  O496  1  0.93846595  0.30623037  0.08120890  1
  O  O497  1  0.58083220  0.06681299  0.02607933  1
  O  O498  1  0.14659215  0.40226502  0.07229457  1
  O  O499  1  0.68441634  0.56316110  0.01236091  1
  O  O500  1  0.03562538  0.92700633  0.09430122  1
  O  O501  1  0.96252240  0.69736201  0.07764186  1
  O  O502  1  0.73019393  0.79462150  0.02371004  1
  O  O503  1  0.88084444  0.34628418  0.02982760  1
  O  O504  1  0.89460051  0.14987263  0.06985188  1
  O  O505  1  0.03585257  0.53568905  0.09027420  1
  O  O506  1  0.10035527  0.08331209  0.09744937  1
  O  O507  1  0.85496691  0.03558849  0.11379817  1
  O  O508  1  0.21795832  0.44355309  0.18638932  1
  O  O509  1  0.07818399  0.83985694  0.16606390  1
  O  O510  1  0.99281763  0.63812224  0.13444099  1
  O  O511  1  0.91798783  0.19272402  0.12415647  1
  O  O512  1  0.15242906  0.28564698  0.17713201  1
  O  O513  1  0.29289310  0.89006959  0.19734381  1
  O  O514  1  0.77365544  0.59213233  0.10155404  1
  O  O515  1  0.94610812  0.80065927  0.12162608  1
  O  O516  1  0.12553990  0.67848477  0.17807941  1
  O  O517  1  0.74580760  0.90094382  0.12262224  1
  O  O518  1  0.32614879  0.58001307  0.17739313  1
  O  O519  1  0.84405970  0.43211805  0.10767251  1
  O  O520  1  0.22228351  0.05208648  0.19361194  1
  O  O521  1  0.91921394  0.32893908  0.14809216  1
  O  O522  1  0.15625811  0.15121260  0.15074771  1
  O  O523  1  0.16340664  0.97730965  0.13977390  1
  O  O524  1  0.91518225  0.49948616  0.16018849  1
  O  O525  1  0.96343061  0.03457321  0.16744637  1
  O  O526  1  0.11152722  0.44087467  0.13225698  1
  O  O527  1  0.37706731  0.75195962  0.17166889  1
  O  O528  1  0.69355650  0.73023328  0.12823280  1
  O  O529  1  0.64590642  0.19893831  0.11993814  1
  O  O530  1  0.42559583  0.28484642  0.17837477  1
  O  O531  1  0.41610331  0.98023842  0.16018652  1
  O  O532  1  0.65730282  0.50264046  0.13996889  1
  O  O533  1  0.92608083  0.19466629  0.17920280  1
  O  O534  1  0.14267267  0.28397315  0.12108019  1
  O  O535  1  0.19335815  0.74932438  0.12811310  1
  O  O536  1  0.87694181  0.72994772  0.17161249  1
  O  O537  1  0.61148973  0.03600543  0.13245383  1
  O  O538  1  0.45973941  0.44561916  0.16691067  1
  O  O539  1  0.41717079  0.15137850  0.14881727  1
  O  O540  1  0.64860566  0.32980016  0.15219298  1
  O  O541  1  0.44675687  0.68022560  0.12164780  1
  O  O542  1  0.62145235  0.80278982  0.17841198  1
  O  O543  1  0.24647374  0.57483175  0.12234335  1
  O  O544  1  0.82826372  0.90111596  0.17698669  1
  O  O545  1  0.34585493  0.05074929  0.10753486  1
  O  O546  1  0.72325212  0.42851785  0.19267784  1
  O  O547  1  0.65322530  0.19238133  0.17600027  1
  O  O548  1  0.41764638  0.28280562  0.12197522  1
  O  O549  1  0.49467782  0.84109997  0.13300257  1
  O  O550  1  0.57546428  0.64056228  0.16614798  1
  O  O551  1  0.71891036  0.03606203  0.18684398  1
  O  O552  1  0.35154040  0.43823585  0.11267135  1
  O  O553  1  0.27588941  0.88388353  0.10098213  1
  O  O554  1  0.79215746  0.59028279  0.19722532  1
  O  O555  1  0.53745209  0.53622466  0.21269770  1
  O  O556  1  0.90368955  0.94307539  0.28608607  1
  O  O557  1  0.76143554  0.34113343  0.26588547  1
  O  O558  1  0.67944574  0.13966196  0.23363916  1
  O  O559  1  0.60347996  0.69378845  0.22276327  1
  O  O560  1  0.83641505  0.78592314  0.27686314  1
  O  O561  1  0.97745803  0.38982499  0.29714157  1
  O  O562  1  0.46314517  0.09138914  0.20265035  1
  O  O563  1  0.63667854  0.30093945  0.22095421  1
  O  O564  1  0.81210458  0.17919666  0.27810328  1
  O  O565  1  0.42726316  0.40247760  0.22325933  1
  O  O566  1  0.01180376  0.07907378  0.27745243  1
  O  O567  1  0.53310069  0.92960841  0.20722817  1
  O  O568  1  0.90794026  0.55119354  0.29194179  1
  O  O569  1  0.60372090  0.82951907  0.24805020  1
  O  O570  1  0.83688388  0.65088853  0.25121794  1
  O  O571  1  0.84245676  0.47956626  0.23934365  1
  O  O572  1  0.59776754  0.00144856  0.26026682  1
  O  O573  1  0.64499592  0.53395690  0.26663021  1
  O  O574  1  0.79478326  0.94550814  0.23264076  1
  O  O575  1  0.06411753  0.25069289  0.27199341  1
  O  O576  1  0.38075229  0.23051044  0.22878040  1
  O  O577  1  0.33106089  0.69571661  0.22099680  1
  O  O578  1  0.10987298  0.78507320  0.27847480  1
  O  O579  1  0.09756727  0.48034598  0.25970613  1
  O  O580  1  0.34303860  0.00047979  0.23957102  1
  O  O581  1  0.60978439  0.69522890  0.27840370  1
  O  O582  1  0.83059257  0.78529833  0.22115620  1
  O  O583  1  0.88028382  0.25040877  0.22850533  1
  O  O584  1  0.56500069  0.22923426  0.27241020  1
  O  O585  1  0.29459541  0.53575519  0.23229089  1
  O  O586  1  0.14593315  0.94515854  0.26715970  1
  O  O587  1  0.10041807  0.65218984  0.24835398  1
  O  O588  1  0.33681975  0.82929561  0.25158554  1
  O  O589  1  0.13412584  0.17863137  0.22184239  1
  O  O590  1  0.31305825  0.29897823  0.27894027  1
  O  O591  1  0.92983340  0.07886242  0.22256945  1
  O  O592  1  0.51226996  0.39853265  0.27721063  1
  O  O593  1  0.03308844  0.55192961  0.20631088  1
  O  O594  1  0.40860709  0.92994327  0.29286833  1
  O  O595  1  0.33695442  0.69334065  0.27653794  1
  O  O596  1  0.10472605  0.78613542  0.22259014  1
  O  O597  1  0.18021332  0.34073531  0.23425980  1
  O  O598  1  0.26222858  0.13926497  0.26668039  1
  O  O599  1  0.40319066  0.53478626  0.28624205  1
  O  O600  1  0.03777682  0.94319530  0.21344267  1
  O  O601  1  0.96440004  0.38934806  0.20220645  1
  O  O602  1  0.47906132  0.09188558  0.29821041  1
  O  O603  1  0.22135144  0.03551580  0.31329552  1
  O  O604  1  0.59066888  0.43516652  0.38668325  1
  O  O605  1  0.44787497  0.84126435  0.36682556  1
  O  O606  1  0.36495343  0.64097838  0.33312848  1
  O  O607  1  0.29588330  0.19049646  0.32499831  1
  O  O608  1  0.53357962  0.27977920  0.37922615  1
  O  O609  1  0.66663780  0.88515135  0.39947529  1
  O  O610  1  0.14905834  0.59053066  0.30182744  1
  O  O611  1  0.32050609  0.80301871  0.32074057  1
  O  O612  1  0.49762751  0.68039613  0.37688425  1
  O  O613  1  0.11197148  0.90080960  0.32283296  1
  O  O614  1  0.69209381  0.57590138  0.37686950  1
  O  O615  1  0.21756439  0.42698901  0.30617662  1
  O  O616  1  0.59619903  0.04911072  0.39290271  1
  O  O617  1  0.29425498  0.32620173  0.34948816  1
  O  O618  1  0.52811244  0.14853709  0.35261544  1
  O  O619  1  0.52761433  0.97924153  0.33973946  1
  O  O620  1  0.28337303  0.49968439  0.35880535  1
  O  O621  1  0.33087224  0.03343419  0.36691097  1
  O  O622  1  0.48143702  0.44413072  0.33217690  1
  O  O623  1  0.74783886  0.75000107  0.37187462  1
  O  O624  1  0.06408434  0.72994363  0.32808882  1
  O  O625  1  0.02014693  0.19476694  0.32105914  1
  O  O626  1  0.80522112  0.28848690  0.37829478  1
  O  O627  1  0.77893832  0.97792228  0.36095240  1
  O  O628  1  0.02540957  0.50102857  0.33871872  1
  O  O629  1  0.30519176  0.19750821  0.38206078  1
  O  O630  1  0.52073591  0.28301409  0.32273368  1
  O  O631  1  0.56508769  0.75228613  0.32789212  1
  O  O632  1  0.24854899  0.73171762  0.37116366  1
  O  O633  1  0.97812911  0.03466637  0.33251531  1
  O  O634  1  0.82965754  0.44388371  0.36601439  1
  O  O635  1  0.79103478  0.15301741  0.34981211  1
  O  O636  1  0.02741313  0.33178487  0.35100136  1
  O  O637  1  0.81827500  0.67849654  0.32104764  1
  O  O638  1  0.99483450  0.80100048  0.37765154  1
  O  O639  1  0.61335515  0.57869948  0.32173652  1
  O  O640  1  0.19433215  0.90042917  0.37701333  1
  O  O641  1  0.71998445  0.05254484  0.30611080  1
  O  O642  1  0.09597802  0.43146205  0.39060568  1
  O  O643  1  0.03057511  0.19885533  0.37626602  1
  O  O644  1  0.79395447  0.28622443  0.32249825  1
  O  O645  1  0.86209250  0.84053132  0.33368186  1
  O  O646  1  0.94537208  0.63834375  0.36532609  1
  O  O647  1  0.08959234  0.03862759  0.38593059  1
  O  O648  1  0.72349464  0.44330886  0.31264143  1
  O  O649  1  0.64877444  0.89057168  0.30225984  1
  O  O650  1  0.16779225  0.59323788  0.39507365  1
  O  O651  1  0.90489841  0.53645615  0.40871897  1
  O  O652  1  0.11975295  0.35757719  0.46644088  1
  O  O653  1  0.06657183  0.15208610  0.43179446  1
  O  O654  1  0.97234204  0.69854660  0.42142767  1
  O  O655  1  0.20433167  0.79211852  0.47628831  1
  O  O656  1  0.84886818  0.08397388  0.40243088  1
  O  O657  1  0.01523637  0.30506045  0.42149343  1
  O  O658  1  0.18246837  0.18044368  0.47871995  1
  O  O659  1  0.79699011  0.40288252  0.42575173  1
  O  O660  1  0.37356746  0.07589712  0.47503220  1
  O  O661  1  0.90987329  0.92798151  0.40643507  1
  O  O662  1  0.23164005  0.55721254  0.48533556  1
  O  O663  1  0.96934026  0.83352461  0.44863704  1
  O  O664  1  0.20297827  0.66174407  0.44870901  1
  O  O665  1  0.21999181  0.48222192  0.43815670  1
  O  O666  1  0.96576741  0.02185129  0.45694173  1
  O  O667  1  0.99630449  0.52882202  0.46139726  1
  O  O668  1  0.16852936  0.94750249  0.43311574  1
  O  O669  1  0.47372878  0.23863318  0.48191785  1
  O  O670  1  0.76005663  0.23176534  0.42736567  1
  O  O671  1  0.69834019  0.69116765  0.42076082  1
  O  O672  1  0.47841517  0.76323387  0.48076600  1
  O  O673  1  0.46842355  0.47468298  0.46694612  1
  O  O674  1  0.70619408  0.99960202  0.44047594  1
  O  O675  1  0.96315840  0.69273366  0.47706046  1
  O  O676  1  0.19940696  0.78800893  0.42099670  1
  O  O677  1  0.26547683  0.25974315  0.43293458  1
  O  O678  1  0.94410212  0.22958838  0.47244600  1
  O  O679  1  0.65702737  0.52737440  0.43122512  1
  O  O680  1  0.49750953  0.93241639  0.47067568  1
  O  O681  1  0.45618829  0.63976246  0.44952946  1
  O  O682  1  0.69764125  0.81507647  0.45623736  1
  O  O683  1  0.52610985  0.17385145  0.42812223  1
  O  O684  1  0.72415111  0.31392757  0.47585190  1
  O  O685  1  0.30127008  0.07779111  0.42094354  1
  O  O686  1  0.40932514  0.55268300  0.40393653  1
  O  O687  1  0.77535803  0.93744897  0.49985849  1
  O  O688  1  0.68828275  0.64359807  0.47268379  1
  O  O689  1  0.47198983  0.77842002  0.42498505  1
  O  O690  1  0.54265771  0.33843790  0.43826445  1
  O  O691  1  0.69859703  0.15437228  0.47405521  1
  O  O692  1  0.40644818  0.94079301  0.41314754  1
  O  O693  1  0.34084398  0.39434823  0.40293790  1
  O  O694  1  0.89056388  0.38232839  0.58666545  1
  O  O695  1  0.02295497  0.98138521  0.56235889  1
  O  O696  1  0.11659246  0.18862669  0.53356975  1
  O  O697  1  0.18094400  0.67508172  0.52610612  1
  O  O698  1  0.96124452  0.54326225  0.57437901  1
  O  O699  1  0.82319055  0.93324761  0.59954835  1
  O  O700  1  0.18370465  0.02570937  0.52214218  1
  O  O701  1  0.97979422  0.14539130  0.57603042  1
  O  O702  1  0.77632967  0.24209320  0.57924520  1
  O  O703  1  0.30788435  0.38311291  0.50231772  1
  O  O704  1  0.89620962  0.77407929  0.59402636  1
  O  O705  1  0.19153979  0.50589653  0.54332309  1
  O  O706  1  0.95326845  0.68374077  0.55093190  1
  O  O707  1  0.95896261  0.85294430  0.53105053  1
  O  O708  1  0.19025154  0.32823858  0.56051927  1
  O  O709  1  0.14456661  0.79846204  0.56652046  1
  O  O710  1  0.98951704  0.39126770  0.52901934  1
  O  O711  1  0.72694786  0.06167135  0.56989210  1
  O  O712  1  0.40591102  0.11194384  0.52957782  1
  O  O713  1  0.45557645  0.62801916  0.52159856  1
  O  O714  1  0.68778066  0.53672597  0.57877375  1
  O  O715  1  0.70693714  0.84712441  0.56059424  1
  O  O716  1  0.44904990  0.30702338  0.54104767  1
  O  O717  1  0.18582951  0.63311407  0.57892164  1
  O  O718  1  0.97080463  0.55811107  0.51913239  1
  O  O719  1  0.90920770  0.07538274  0.52654823  1
  O  O720  1  0.22523396  0.09741462  0.57193946  1
  O  O721  1  0.49063280  0.78766781  0.53932624  1
  O  O722  1  0.65348370  0.37618674  0.56658342  1
  O  O723  1  0.69220506  0.66455781  0.55006602  1
  O  O724  1  0.46098708  0.49022361  0.55146705  1
  O  O725  1  0.65831865  0.13877886  0.52588071  1
  O  O726  1  0.48662612  0.01856615  0.58124124  1
  O  O727  1  0.84439872  0.25791393  0.52613378  1
  O  O728  1  0.27911637  0.92293259  0.57216727  1
  O  O729  1  0.74015192  0.76171397  0.51226977  1
  O  O730  1  0.38948469  0.39797677  0.59436364  1
  O  O731  1  0.46264716  0.62741052  0.57768084  1
  O  O732  1  0.69543022  0.53065918  0.52375423  1
  O  O733  1  0.54784039  0.97817423  0.52995441  1
  O  O734  1  0.53115018  0.17489659  0.56989250  1
  O  O735  1  0.38893994  0.78914338  0.59026913  1
  O  O736  1  0.32562667  0.24218128  0.59738772  1
  O  O737  1  0.57021259  0.28914130  0.61384389  1
  O  O738  1  0.20701584  0.88110637  0.68625470  1
  O  O739  1  0.34643817  0.48542668  0.66615356  1
  O  O740  1  0.43159623  0.68719894  0.63450365  1
  O  O741  1  0.50693646  0.13193038  0.62417319  1
  O  O742  1  0.27244611  0.03942494  0.67716106  1
  O  O743  1  0.13198858  0.43471902  0.69749723  1
  O  O744  1  0.65143687  0.73273389  0.60167843  1
  O  O745  1  0.47799883  0.52457722  0.62176316  1
  O  O746  1  0.29878223  0.64673471  0.67818466  1
  O  O747  1  0.67905339  0.42386968  0.62268052  1
  O  O748  1  0.09797310  0.74485128  0.67755300  1
  O  O749  1  0.58104989  0.89275118  0.60778286  1
  O  O750  1  0.20214190  0.27298829  0.69361141  1
  O  O751  1  0.50588252  0.99612492  0.64813908  1
  O  O752  1  0.26885606  0.17392249  0.65078872  1
  O  O753  1  0.26083805  0.34779784  0.63977455  1
  O  O754  1  0.50968055  0.82555079  0.66028610  1
  O  O755  1  0.46094341  0.29081079  0.66741012  1
  O  O756  1  0.31403778  0.88418952  0.63222226  1
  O  O757  1  0.04730909  0.57290613  0.67184594  1
  O  O758  1  0.73129109  0.59464027  0.62829906  1
  O  O759  1  0.77848799  0.12631586  0.62008245  1
  O  O760  1  0.99902373  0.04033826  0.67842592  1
  O  O761  1  0.00850364  0.34498847  0.66021835  1
  O  O762  1  0.76736886  0.82212347  0.64009302  1
  O  O763  1  0.49840661  0.13053832  0.67924348  1
  O  O764  1  0.28223396  0.04097655  0.62113355  1
  O  O765  1  0.23090599  0.57620601  0.62823117  1
  O  O766  1  0.54745709  0.59555186  0.67168281  1
  O  O767  1  0.81323464  0.28911674  0.63254248  1
  O  O768  1  0.96520417  0.87942818  0.66686736  1
  O  O769  1  0.00762151  0.17407366  0.64880111  1
  O  O770  1  0.77646862  0.99537902  0.65226841  1
  O  O771  1  0.97793705  0.64491923  0.62188269  1
  O  O772  1  0.80225585  0.52236007  0.67847876  1
  O  O773  1  0.17844954  0.75113875  0.62263599  1
  O  O774  1  0.59651092  0.42423833  0.67718931  1
  O  O775  1  0.07888090  0.27434772  0.60740237  1
  O  O776  1  0.70171892  0.89679193  0.69283550  1
  O  O777  1  0.77153930  0.13284130  0.67605590  1
  O  O778  1  0.00741175  0.04305284  0.62204751  1
  O  O779  1  0.93032050  0.48403631  0.63302480  1
  O  O780  1  0.84901994  0.68426772  0.66631514  1
  O  O781  1  0.70525497  0.28906258  0.68685134  1
  O  O782  1  0.07458421  0.88850603  0.61248679  1
  O  O783  1  0.14965380  0.44150222  0.60101821  1
  O  O784  1  0.63287929  0.73506976  0.69728709  1
  O  O785  1  0.88716553  0.78898901  0.71268188  1
  O  O786  1  0.52072662  0.38214178  0.78624656  1
  O  O787  1  0.66363750  0.98398933  0.76590820  1
  O  O788  1  0.74551259  0.18553142  0.73377747  1
  O  O789  1  0.82121608  0.63112637  0.72276660  1
  O  O790  1  0.58809281  0.53907725  0.77682776  1
  O  O791  1  0.44760421  0.93529637  0.79722986  1
  O  O792  1  0.96110012  0.23364900  0.70245815  1
  O  O793  1  0.78797269  0.02434530  0.72096725  1
  O  O794  1  0.61223149  0.14596472  0.77807635  1
  O  O795  1  0.99766262  0.92287694  0.72325028  1
  O  O796  1  0.41276091  0.24590144  0.77749896  1
  O  O797  1  0.89138489  0.39576809  0.70707980  1
  O  O798  1  0.51719407  0.77394518  0.79202126  1
  O  O799  1  0.82172488  0.49619215  0.74826734  1
  O  O800  1  0.58810387  0.67463361  0.75129858  1
  O  O801  1  0.58196249  0.84569088  0.73946117  1
  O  O802  1  0.82632704  0.32422407  0.76027099  1
  O  O803  1  0.78006019  0.79147637  0.76663038  1
  O  O804  1  0.62936793  0.38008012  0.73262101  1
  O  O805  1  0.36034050  0.07432312  0.77208105  1
  O  O806  1  0.04357005  0.09482255  0.72889940  1
  O  O807  1  0.09308941  0.62934260  0.72113061  1
  O  O808  1  0.31398554  0.53956797  0.77856917  1
  O  O809  1  0.32711943  0.84474611  0.75980436  1
  O  O810  1  0.08106211  0.32428059  0.73958374  1
  O  O811  1  0.81446842  0.63021206  0.77845699  1
  O  O812  1  0.59345474  0.54022478  0.72116876  1
  O  O813  1  0.54430584  0.07475554  0.72855453  1
  O  O814  1  0.85960570  0.09579758  0.77250521  1
  O  O815  1  0.13009241  0.78947310  0.73233687  1
  O  O816  1  0.27835672  0.37960511  0.76712265  1
  O  O817  1  0.32452386  0.67272920  0.74860936  1
  O  O818  1  0.08862452  0.49551286  0.75181347  1
  O  O819  1  0.28970304  0.14645414  0.72179813  1
  O  O820  1  0.11145163  0.02589958  0.77892998  1
  O  O821  1  0.49478918  0.24639345  0.72267252  1
  O  O822  1  0.91267007  0.92655695  0.77721665  1
  O  O823  1  0.39197847  0.77327457  0.70646524  1
  O  O824  1  0.01592952  0.39519983  0.79251820  1
  O  O825  1  0.08702187  0.63196166  0.77657839  1
  O  O826  1  0.31944764  0.53902054  0.72266931  1
  O  O827  1  0.24469008  0.98456434  0.73420889  1
  O  O828  1  0.16231019  0.18587029  0.76673659  1
  O  O829  1  0.02199396  0.79021083  0.78633815  1
  O  O830  1  0.38645759  0.38177659  0.71348406  1
  O  O831  1  0.46036387  0.93587224  0.70223266  1
  O  O832  1  0.94532196  0.23344999  0.79811800  1
  O  O833  1  0.20280314  0.28931619  0.81317893  1
  O  O834  1  0.83479419  0.88955717  0.88679405  1
  O  O835  1  0.97695592  0.48369528  0.86691666  1
  O  O836  1  0.06076545  0.68403855  0.83335710  1
  O  O837  1  0.12982470  0.13430870  0.82494647  1
  O  O838  1  0.89272417  0.04495150  0.87920345  1
  O  O839  1  0.75796707  0.43964971  0.89935910  1
  O  O840  1  0.27652313  0.73441327  0.80192445  1
  O  O841  1  0.10308522  0.52164375  0.82080048  1
  O  O842  1  0.92731705  0.64463364  0.87704071  1
  O  O843  1  0.31334293  0.42350364  0.82320210  1
  O  O844  1  0.73293375  0.74869223  0.87693249  1
  O  O845  1  0.20736838  0.89808635  0.80617377  1
  O  O846  1  0.82936683  0.27573393  0.89284623  1
  O  O847  1  0.13143010  0.99858109  0.84945147  1
  O  O848  1  0.89793982  0.17640372  0.85251422  1
  O  O849  1  0.89793172  0.34574892  0.83968566  1
  O  O850  1  0.14152529  0.82544378  0.85894501  1
  O  O851  1  0.09518105  0.29162910  0.86682410  1
  O  O852  1  0.94381563  0.88105424  0.83221814  1
  O  O853  1  0.67705193  0.57493691  0.87193831  1
  O  O854  1  0.36040769  0.59436905  0.82831554  1
  O  O855  1  0.40536358  0.12999920  0.82111956  1
  O  O856  1  0.62094177  0.03633351  0.87833562  1
  O  O857  1  0.64586248  0.34670867  0.86093486  1
  O  O858  1  0.39953827  0.82397821  0.83882863  1
  O  O859  1  0.12082685  0.12730859  0.88205716  1
  O  O860  1  0.90465849  0.04187011  0.82272137  1
  O  O861  1  0.85988452  0.57322978  0.82801372  1
  O  O862  1  0.17636094  0.59313244  0.87141328  1
  O  O863  1  0.44629458  0.28982648  0.83250388  1
  O  O864  1  0.59564398  0.88095486  0.86606678  1
  O  O865  1  0.63527172  0.17181805  0.84990623  1
  O  O866  1  0.39826088  0.99330199  0.85113990  1
  O  O867  1  0.60563332  0.64663160  0.82106943  1
  O  O868  1  0.43022333  0.52377894  0.87775495  1
  O  O869  1  0.81202567  0.74639732  0.82178653  1
  O  O870  1  0.23102124  0.42491776  0.87709625  1
  O  O871  1  0.70469152  0.27272365  0.80615603  1
  O  O872  1  0.32956085  0.89347858  0.89068305  1
  O  O873  1  0.39528809  0.12624802  0.87621653  1
  O  O874  1  0.63158560  0.03880071  0.82246483  1
  O  O875  1  0.56332374  0.48433521  0.83381338  1
  O  O876  1  0.47920852  0.68633924  0.86546438  1
  O  O877  1  0.33606802  0.28646067  0.88588620  1
  O  O878  1  0.70162628  0.88151835  0.81272074  1
  O  O879  1  0.77646484  0.43497578  0.80241483  1
  O  O880  1  0.25754259  0.73205538  0.89529894  1
  O  O881  1  0.52027175  0.78841606  0.90876328  1
  O  O882  1  0.30633301  0.96778670  0.96644185  1
  O  O883  1  0.35914349  0.17339967  0.93179820  1
  O  O884  1  0.45306648  0.62662734  0.92148015  1
  O  O885  1  0.22141475  0.53293978  0.97638594  1
  O  O886  1  0.57664807  0.24079554  0.90244664  1
  O  O887  1  0.41004174  0.02016843  0.92145276  1
  O  O888  1  0.24327297  0.14498586  0.97867361  1
  O  O889  1  0.62825943  0.92174830  0.92577654  1
  O  O890  1  0.05120507  0.24844580  0.97490816  1
  O  O891  1  0.51559285  0.39684420  0.90655134  1
  O  O892  1  0.19373741  0.76749097  0.98545526  1
  O  O893  1  0.45618523  0.49167319  0.94869187  1
  O  O894  1  0.22252205  0.66337820  0.94871825  1
  O  O895  1  0.20475015  0.84305420  0.93826469  1
  O  O896  1  0.45990942  0.30328408  0.95704875  1
  O  O897  1  0.42888381  0.79603936  0.96128142  1
  O  O898  1  0.25741906  0.37743908  0.93308331  1
  O  O899  1  0.95299034  0.08534346  0.98168973  1
  O  O900  1  0.66570454  0.09303485  0.92742093  1
  O  O901  1  0.72671056  0.63321485  0.92089695  1
  O  O902  1  0.94754863  0.56090435  0.98073758  1
  O  O903  1  0.95657052  0.85009041  0.96694431  1
  O  O904  1  0.71920579  0.32492424  0.94046052  1
  O  O905  1  0.46239226  0.63240412  0.97710246  1
  O  O906  1  0.22601048  0.53690306  0.92113902  1
  O  O907  1  0.15934875  0.06608500  0.93327702  1
  O  O908  1  0.48132526  0.09563283  0.97246560  1
  O  O909  1  0.76756957  0.79701081  0.93131999  1
  O  O910  1  0.92802686  0.39193771  0.97065275  1
  O  O911  1  0.96892482  0.68477380  0.94953396  1
  O  O912  1  0.72805743  0.50916700  0.95636254  1
  O  O913  1  0.89971084  0.15071912  0.92811666  1
  O  O914  1  0.70133404  0.01078445  0.97592487  1
  O  O915  1  0.12425337  0.24731861  0.92086477  1
  O  O916  1  0.01595728  0.77250395  0.90406568  1
  O  O917  1  0.65140518  0.38754583  0.99999919  1
  O  O918  1  0.73734560  0.68068339  0.97279936  1
  O  O919  1  0.95289949  0.54620595  0.92493644  1
  O  O920  1  0.88208191  0.98590048  0.93821207  1
  O  O921  1  0.72720789  0.17024410  0.97408721  1
  O  O922  1  0.01937555  0.38433668  0.91311604  1
  O  O923  1  0.08562904  0.93143445  0.90285527  1
